/*--------------------------------*- C++ -*----------------------------------*\
| =========                 |                                                 |
| \\      /  F ield         | OpenFOAM: The Open Source CFD Toolbox           |
|  \\    /   O peration     | Version:  2406                                  |
|   \\  /    A nd           | Website:  www.openfoam.com                      |
|    \\/     M anipulation  |                                                 |
\*---------------------------------------------------------------------------*/
FoamFile
{
    version     2.0;
    format      ascii;
    arch        "LSB;label=32;scalar=64";
    class       featureEdgeMesh;
    location    "constant/triSurface";
    object      ami.eMesh;
}
// * * * * * * * * * * * * * * * * * * * * * * * * * * * * * * * * * * * * * //


// points:

256
(
(0.343275 0.0682816 0.59)
(0.334929 0.1016 0.59)
(0.308672 0.164989 0.59)
(0.291014 0.19445 0.59)
(0.222038 0.270554 0.59)
(0.19445 0.291014 0.59)
(0.1016 0.334929 0.59)
(2.14313e-17 0.35 0.59)
(-0.0682816 0.343275 0.59)
(-0.1016 0.334929 0.59)
(-0.164989 0.308672 0.59)
(-0.19445 0.291014 0.59)
(-0.270554 0.222038 0.59)
(-0.291014 0.19445 0.59)
(-0.334929 0.1016 0.59)
(-0.35 4.28626e-17 0.59)
(-0.343275 -0.0682816 0.59)
(-0.334929 -0.1016 0.59)
(-0.308672 -0.164989 0.59)
(-0.291014 -0.19445 0.59)
(-0.222038 -0.270554 0.59)
(-0.19445 -0.291014 0.59)
(-0.1016 -0.334929 0.59)
(-6.4294e-17 -0.35 0.59)
(0.0682816 -0.343275 0.59)
(0.1016 -0.334929 0.59)
(0.164989 -0.308672 0.59)
(0.19445 -0.291014 0.59)
(0.270554 -0.222038 0.59)
(0.291014 -0.19445 0.59)
(0.334929 -0.1016 0.59)
(0.4 -9.79717e-17 0.4)
(0.398074 0.0392069 0.4)
(0.348315 0.034306 0.4)
(0.35 -8.57253e-17 0.4)
(0.392314 0.0780361 0.4)
(0.343275 0.0682816 0.4)
(0.382776 0.116114 0.4)
(0.334929 0.1016 0.4)
(0.369552 0.153073 0.4)
(0.323358 0.133939 0.4)
(0.352769 0.188559 0.4)
(0.308672 0.164989 0.4)
(0.332588 0.222228 0.4)
(0.291014 0.19445 0.4)
(0.309204 0.253757 0.4)
(0.270554 0.222038 0.4)
(0.282843 0.282843 0.4)
(0.247487 0.247487 0.4)
(0.253757 0.309204 0.4)
(0.222038 0.270554 0.4)
(0.222228 0.332588 0.4)
(0.19445 0.291014 0.4)
(0.188559 0.352769 0.4)
(0.164989 0.308672 0.4)
(0.153073 0.369552 0.4)
(0.133939 0.323358 0.4)
(0.116114 0.382776 0.4)
(0.1016 0.334929 0.4)
(0.0780361 0.392314 0.4)
(0.0682816 0.343275 0.4)
(0.0392069 0.398074 0.4)
(0.034306 0.348315 0.4)
(2.44929e-17 0.4 0.4)
(2.14313e-17 0.35 0.4)
(-0.0392069 0.398074 0.4)
(-0.034306 0.348315 0.4)
(-0.0780361 0.392314 0.4)
(-0.0682816 0.343275 0.4)
(-0.116114 0.382776 0.4)
(-0.1016 0.334929 0.4)
(-0.153073 0.369552 0.4)
(-0.133939 0.323358 0.4)
(-0.188559 0.352769 0.4)
(-0.164989 0.308672 0.4)
(-0.222228 0.332588 0.4)
(-0.19445 0.291014 0.4)
(-0.253757 0.309204 0.4)
(-0.222038 0.270554 0.4)
(-0.282843 0.282843 0.4)
(-0.247487 0.247487 0.4)
(-0.309204 0.253757 0.4)
(-0.270554 0.222038 0.4)
(-0.332588 0.222228 0.4)
(-0.291014 0.19445 0.4)
(-0.352769 0.188559 0.4)
(-0.308672 0.164989 0.4)
(-0.369552 0.153073 0.4)
(-0.323358 0.133939 0.4)
(-0.382776 0.116114 0.4)
(-0.334929 0.1016 0.4)
(-0.392314 0.0780361 0.4)
(-0.343275 0.0682816 0.4)
(-0.398074 0.0392069 0.4)
(-0.348315 0.034306 0.4)
(-0.4 4.89859e-17 0.4)
(-0.35 4.28626e-17 0.4)
(-0.398074 -0.0392069 0.4)
(-0.348315 -0.034306 0.4)
(-0.392314 -0.0780361 0.4)
(-0.343275 -0.0682816 0.4)
(-0.382776 -0.116114 0.4)
(-0.334929 -0.1016 0.4)
(-0.369552 -0.153073 0.4)
(-0.323358 -0.133939 0.4)
(-0.352769 -0.188559 0.4)
(-0.308672 -0.164989 0.4)
(-0.332588 -0.222228 0.4)
(-0.291014 -0.19445 0.4)
(-0.309204 -0.253757 0.4)
(-0.270554 -0.222038 0.4)
(-0.282843 -0.282843 0.4)
(-0.247487 -0.247487 0.4)
(-0.253757 -0.309204 0.4)
(-0.222038 -0.270554 0.4)
(-0.222228 -0.332588 0.4)
(-0.19445 -0.291014 0.4)
(-0.188559 -0.352769 0.4)
(-0.164989 -0.308672 0.4)
(-0.153073 -0.369552 0.4)
(-0.133939 -0.323358 0.4)
(-0.116114 -0.382776 0.4)
(-0.1016 -0.334929 0.4)
(-0.0780361 -0.392314 0.4)
(-0.0682816 -0.343275 0.4)
(-0.0392069 -0.398074 0.4)
(-0.034306 -0.348315 0.4)
(-7.34788e-17 -0.4 0.4)
(-6.4294e-17 -0.35 0.4)
(0.0392069 -0.398074 0.4)
(0.034306 -0.348315 0.4)
(0.0780361 -0.392314 0.4)
(0.0682816 -0.343275 0.4)
(0.116114 -0.382776 0.4)
(0.1016 -0.334929 0.4)
(0.153073 -0.369552 0.4)
(0.133939 -0.323358 0.4)
(0.188559 -0.352769 0.4)
(0.164989 -0.308672 0.4)
(0.222228 -0.332588 0.4)
(0.19445 -0.291014 0.4)
(0.253757 -0.309204 0.4)
(0.222038 -0.270554 0.4)
(0.282843 -0.282843 0.4)
(0.247487 -0.247487 0.4)
(0.309204 -0.253757 0.4)
(0.270554 -0.222038 0.4)
(0.332588 -0.222228 0.4)
(0.291014 -0.19445 0.4)
(0.352769 -0.188559 0.4)
(0.308672 -0.164989 0.4)
(0.369552 -0.153073 0.4)
(0.323358 -0.133939 0.4)
(0.382776 -0.116114 0.4)
(0.334929 -0.1016 0.4)
(0.392314 -0.0780361 0.4)
(0.343275 -0.0682816 0.4)
(0.398074 -0.0392069 0.4)
(0.348315 -0.034306 0.4)
(0.348315 0.034306 0.59)
(0.35 -8.57253e-17 0.59)
(0.323358 0.133939 0.59)
(0.270554 0.222038 0.59)
(0.247487 0.247487 0.59)
(0.164989 0.308672 0.59)
(0.133939 0.323358 0.59)
(0.0682816 0.343275 0.59)
(0.034306 0.348315 0.59)
(-0.034306 0.348315 0.59)
(-0.133939 0.323358 0.59)
(-0.222038 0.270554 0.59)
(-0.247487 0.247487 0.59)
(-0.308672 0.164989 0.59)
(-0.323358 0.133939 0.59)
(-0.343275 0.0682816 0.59)
(-0.348315 0.034306 0.59)
(-0.348315 -0.034306 0.59)
(-0.323358 -0.133939 0.59)
(-0.270554 -0.222038 0.59)
(-0.247487 -0.247487 0.59)
(-0.164989 -0.308672 0.59)
(-0.133939 -0.323358 0.59)
(-0.0682816 -0.343275 0.59)
(-0.034306 -0.348315 0.59)
(0.034306 -0.348315 0.59)
(0.133939 -0.323358 0.59)
(0.222038 -0.270554 0.59)
(0.247487 -0.247487 0.59)
(0.308672 -0.164989 0.59)
(0.323358 -0.133939 0.59)
(0.343275 -0.0682816 0.59)
(0.348315 -0.034306 0.59)
(0.398074 0.0392069 0.59)
(0.4 -9.79717e-17 0.59)
(0.392314 0.0780361 0.59)
(0.382776 0.116114 0.59)
(0.369552 0.153073 0.59)
(0.352769 0.188559 0.59)
(0.332588 0.222228 0.59)
(0.309204 0.253757 0.59)
(0.282843 0.282843 0.59)
(0.253757 0.309204 0.59)
(0.222228 0.332588 0.59)
(0.188559 0.352769 0.59)
(0.153073 0.369552 0.59)
(0.116114 0.382776 0.59)
(0.0780361 0.392314 0.59)
(0.0392069 0.398074 0.59)
(2.44929e-17 0.4 0.59)
(-0.0392069 0.398074 0.59)
(-0.0780361 0.392314 0.59)
(-0.116114 0.382776 0.59)
(-0.153073 0.369552 0.59)
(-0.188559 0.352769 0.59)
(-0.222228 0.332588 0.59)
(-0.253757 0.309204 0.59)
(-0.282843 0.282843 0.59)
(-0.309204 0.253757 0.59)
(-0.332588 0.222228 0.59)
(-0.352769 0.188559 0.59)
(-0.369552 0.153073 0.59)
(-0.382776 0.116114 0.59)
(-0.392314 0.0780361 0.59)
(-0.398074 0.0392069 0.59)
(-0.4 4.89859e-17 0.59)
(-0.398074 -0.0392069 0.59)
(-0.392314 -0.0780361 0.59)
(-0.382776 -0.116114 0.59)
(-0.369552 -0.153073 0.59)
(-0.352769 -0.188559 0.59)
(-0.332588 -0.222228 0.59)
(-0.309204 -0.253757 0.59)
(-0.282843 -0.282843 0.59)
(-0.253757 -0.309204 0.59)
(-0.222228 -0.332588 0.59)
(-0.188559 -0.352769 0.59)
(-0.153073 -0.369552 0.59)
(-0.116114 -0.382776 0.59)
(-0.0780361 -0.392314 0.59)
(-0.0392069 -0.398074 0.59)
(-7.34788e-17 -0.4 0.59)
(0.0392069 -0.398074 0.59)
(0.0780361 -0.392314 0.59)
(0.116114 -0.382776 0.59)
(0.153073 -0.369552 0.59)
(0.188559 -0.352769 0.59)
(0.222228 -0.332588 0.59)
(0.253757 -0.309204 0.59)
(0.282843 -0.282843 0.59)
(0.309204 -0.253757 0.59)
(0.332588 -0.222228 0.59)
(0.352769 -0.188559 0.59)
(0.369552 -0.153073 0.59)
(0.382776 -0.116114 0.59)
(0.392314 -0.0780361 0.59)
(0.398074 -0.0392069 0.59)
)


// edges:

576
(
(34 33)
(33 36)
(36 38)
(38 40)
(40 42)
(42 44)
(44 46)
(46 48)
(48 50)
(50 52)
(52 54)
(54 56)
(56 58)
(58 60)
(60 62)
(62 64)
(64 66)
(66 68)
(68 70)
(70 72)
(72 74)
(74 76)
(76 78)
(78 80)
(80 82)
(82 84)
(84 86)
(86 88)
(88 90)
(90 92)
(92 94)
(94 96)
(96 98)
(98 100)
(100 102)
(102 104)
(104 106)
(106 108)
(108 110)
(110 112)
(112 114)
(114 116)
(116 118)
(118 120)
(120 122)
(122 124)
(124 126)
(126 128)
(128 130)
(130 132)
(132 134)
(134 136)
(136 138)
(138 140)
(140 142)
(142 144)
(144 146)
(146 148)
(148 150)
(150 152)
(152 154)
(154 156)
(156 158)
(158 34)
(34 159)
(160 34)
(38 161)
(44 162)
(46 163)
(52 164)
(54 165)
(58 166)
(60 167)
(64 168)
(70 169)
(76 170)
(78 171)
(84 172)
(86 173)
(90 174)
(92 175)
(96 176)
(102 177)
(108 178)
(110 179)
(116 180)
(118 181)
(122 182)
(124 183)
(128 184)
(134 185)
(140 186)
(142 187)
(148 188)
(150 189)
(154 190)
(156 191)
(32 33)
(35 36)
(37 38)
(39 40)
(41 42)
(43 44)
(45 46)
(47 48)
(49 50)
(51 52)
(53 54)
(55 56)
(57 58)
(59 60)
(61 62)
(63 64)
(65 66)
(67 68)
(69 70)
(71 72)
(73 74)
(75 76)
(77 78)
(79 80)
(81 82)
(83 84)
(85 86)
(87 88)
(89 90)
(91 92)
(93 94)
(95 96)
(97 98)
(99 100)
(101 102)
(103 104)
(105 106)
(107 108)
(109 110)
(111 112)
(113 114)
(115 116)
(117 118)
(119 120)
(121 122)
(123 124)
(125 126)
(127 128)
(129 130)
(131 132)
(133 134)
(135 136)
(137 138)
(139 140)
(141 142)
(143 144)
(145 146)
(147 148)
(149 150)
(151 152)
(153 154)
(155 156)
(157 158)
(31 34)
(31 32)
(32 35)
(35 37)
(37 39)
(39 41)
(41 43)
(43 45)
(45 47)
(47 49)
(49 51)
(51 53)
(53 55)
(55 57)
(57 59)
(59 61)
(61 63)
(63 65)
(65 67)
(67 69)
(69 71)
(71 73)
(73 75)
(75 77)
(77 79)
(79 81)
(81 83)
(83 85)
(85 87)
(87 89)
(89 91)
(91 93)
(93 95)
(95 97)
(97 99)
(99 101)
(101 103)
(103 105)
(105 107)
(107 109)
(109 111)
(111 113)
(113 115)
(115 117)
(117 119)
(119 121)
(121 123)
(123 125)
(125 127)
(127 129)
(129 131)
(131 133)
(133 135)
(135 137)
(137 139)
(139 141)
(141 143)
(143 145)
(145 147)
(147 149)
(149 151)
(151 153)
(153 155)
(155 157)
(157 31)
(192 193)
(160 159)
(194 192)
(159 0)
(195 194)
(0 1)
(196 195)
(1 161)
(197 196)
(161 2)
(198 197)
(2 3)
(199 198)
(3 162)
(200 199)
(162 163)
(201 200)
(163 4)
(202 201)
(4 5)
(203 202)
(5 164)
(204 203)
(164 165)
(205 204)
(165 6)
(206 205)
(6 166)
(207 206)
(166 167)
(208 207)
(167 7)
(209 208)
(7 168)
(210 209)
(168 8)
(211 210)
(8 9)
(212 211)
(9 169)
(213 212)
(169 10)
(214 213)
(10 11)
(215 214)
(11 170)
(216 215)
(170 171)
(217 216)
(171 12)
(218 217)
(12 13)
(219 218)
(13 172)
(220 219)
(172 173)
(221 220)
(173 14)
(222 221)
(14 174)
(223 222)
(174 175)
(224 223)
(175 15)
(225 224)
(15 176)
(226 225)
(176 16)
(227 226)
(16 17)
(228 227)
(17 177)
(229 228)
(177 18)
(230 229)
(18 19)
(231 230)
(19 178)
(232 231)
(178 179)
(233 232)
(179 20)
(234 233)
(20 21)
(235 234)
(21 180)
(236 235)
(180 181)
(237 236)
(181 22)
(238 237)
(22 182)
(239 238)
(182 183)
(240 239)
(183 23)
(241 240)
(23 184)
(242 241)
(184 24)
(243 242)
(24 25)
(244 243)
(25 185)
(245 244)
(185 26)
(246 245)
(26 27)
(247 246)
(27 186)
(248 247)
(186 187)
(249 248)
(187 28)
(250 249)
(28 29)
(251 250)
(29 188)
(252 251)
(188 189)
(253 252)
(189 30)
(254 253)
(30 190)
(255 254)
(190 191)
(193 255)
(191 160)
(159 33)
(33 0)
(0 36)
(36 1)
(1 38)
(161 40)
(40 2)
(2 42)
(42 3)
(3 44)
(162 46)
(163 48)
(48 4)
(4 50)
(50 5)
(5 52)
(164 54)
(165 56)
(56 6)
(6 58)
(166 60)
(167 62)
(62 7)
(7 64)
(168 66)
(66 8)
(8 68)
(68 9)
(9 70)
(169 72)
(72 10)
(10 74)
(74 11)
(11 76)
(170 78)
(171 80)
(80 12)
(12 82)
(82 13)
(13 84)
(172 86)
(173 88)
(88 14)
(14 90)
(174 92)
(175 94)
(94 15)
(15 96)
(176 98)
(98 16)
(16 100)
(100 17)
(17 102)
(177 104)
(104 18)
(18 106)
(106 19)
(19 108)
(178 110)
(179 112)
(112 20)
(20 114)
(114 21)
(21 116)
(180 118)
(181 120)
(120 22)
(22 122)
(182 124)
(183 126)
(126 23)
(23 128)
(184 130)
(130 24)
(24 132)
(132 25)
(25 134)
(185 136)
(136 26)
(26 138)
(138 27)
(27 140)
(186 142)
(187 144)
(144 28)
(28 146)
(146 29)
(29 148)
(188 150)
(189 152)
(152 30)
(30 154)
(190 156)
(191 158)
(158 160)
(33 31)
(32 34)
(36 32)
(35 33)
(38 35)
(37 36)
(40 37)
(39 38)
(42 39)
(41 40)
(44 41)
(43 42)
(46 43)
(45 44)
(48 45)
(47 46)
(50 47)
(49 48)
(52 49)
(51 50)
(54 51)
(53 52)
(56 53)
(55 54)
(58 55)
(57 56)
(60 57)
(59 58)
(62 59)
(61 60)
(64 61)
(63 62)
(66 63)
(65 64)
(68 65)
(67 66)
(70 67)
(69 68)
(72 69)
(71 70)
(74 71)
(73 72)
(76 73)
(75 74)
(78 75)
(77 76)
(80 77)
(79 78)
(82 79)
(81 80)
(84 81)
(83 82)
(86 83)
(85 84)
(88 85)
(87 86)
(90 87)
(89 88)
(92 89)
(91 90)
(94 91)
(93 92)
(96 93)
(95 94)
(98 95)
(97 96)
(100 97)
(99 98)
(102 99)
(101 100)
(104 101)
(103 102)
(106 103)
(105 104)
(108 105)
(107 106)
(110 107)
(109 108)
(112 109)
(111 110)
(114 111)
(113 112)
(116 113)
(115 114)
(118 115)
(117 116)
(120 117)
(119 118)
(122 119)
(121 120)
(124 121)
(123 122)
(126 123)
(125 124)
(128 125)
(127 126)
(130 127)
(129 128)
(132 129)
(131 130)
(134 131)
(133 132)
(136 133)
(135 134)
(138 135)
(137 136)
(140 137)
(139 138)
(142 139)
(141 140)
(144 141)
(143 142)
(146 143)
(145 144)
(148 145)
(147 146)
(150 147)
(149 148)
(152 149)
(151 150)
(154 151)
(153 152)
(156 153)
(155 154)
(158 155)
(157 156)
(34 157)
(31 158)
)

// * * * * * * * * * * * * * * * * * * * * * * * * * * * * * * * * * * * * * //


// ************************************************************************* //
