/*--------------------------------*- C++ -*----------------------------------*\
| =========                 |                                                 |
| \\      /  F ield         | OpenFOAM: The Open Source CFD Toolbox           |
|  \\    /   O peration     | Version:  2406                                  |
|   \\  /    A nd           | Website:  www.openfoam.com                      |
|    \\/     M anipulation  |                                                 |
\*---------------------------------------------------------------------------*/
FoamFile
{
    version     2.0;
    format      ascii;
    arch        "LSB;label=32;scalar=64";
    class       featureEdgeMesh;
    location    "constant/triSurface";
    object      tank.eMesh;
}
// * * * * * * * * * * * * * * * * * * * * * * * * * * * * * * * * * * * * * //


// points:

112
(
(1.25 0 2.32)
(1.24214 -0.139956 2.32)
(1.24214 0.139956 2.32)
(1.12621 0.542355 2.32)
(1.17985 0.412849 2.32)
(1.21866 0.278151 2.32)
(0.883884 0.883884 2.32)
(0.977289 0.779362 2.32)
(1.05841 0.66504 2.32)
(0.542355 1.12621 2.32)
(0.66504 1.05841 2.32)
(0.779362 0.977289 2.32)
(0.139956 1.24214 2.32)
(0.278151 1.21866 2.32)
(0.412849 1.17985 2.32)
(-0.278151 1.21866 2.32)
(-0.139956 1.24214 2.32)
(0 1.25 2.32)
(-0.66504 1.05841 2.32)
(-0.542355 1.12621 2.32)
(-0.412849 1.17985 2.32)
(-0.977289 0.779362 2.32)
(-0.883884 0.883884 2.32)
(-0.779362 0.977289 2.32)
(-1.17985 0.412849 2.32)
(-1.12621 0.542355 2.32)
(-1.05841 0.66504 2.32)
(-1.25 0 2.32)
(-1.24214 0.139956 2.32)
(-1.21866 0.278151 2.32)
(-1.17985 -0.412849 2.32)
(-1.21866 -0.278151 2.32)
(-1.24214 -0.139956 2.32)
(-0.977289 -0.779362 2.32)
(-1.05841 -0.66504 2.32)
(-1.12621 -0.542355 2.32)
(-0.66504 -1.05841 2.32)
(-0.779362 -0.977289 2.32)
(-0.883884 -0.883884 2.32)
(-0.278151 -1.21866 2.32)
(-0.412849 -1.17985 2.32)
(-0.542355 -1.12621 2.32)
(0.139956 -1.24214 2.32)
(0 -1.25 2.32)
(-0.139956 -1.24214 2.32)
(0.542355 -1.12621 2.32)
(0.412849 -1.17985 2.32)
(0.278151 -1.21866 2.32)
(0.883884 -0.883884 2.32)
(0.779362 -0.977289 2.32)
(0.66504 -1.05841 2.32)
(1.12621 -0.542355 2.32)
(1.05841 -0.66504 2.32)
(0.977289 -0.779362 2.32)
(1.21866 -0.278151 2.32)
(1.17985 -0.412849 2.32)
(1.25 0 0.02)
(1.24214 0.139956 0.02)
(1.24214 -0.139956 0.02)
(1.12621 -0.542355 0.02)
(1.17985 -0.412849 0.02)
(1.21866 -0.278151 0.02)
(0.883884 -0.883884 0.02)
(0.977289 -0.779362 0.02)
(1.05841 -0.66504 0.02)
(0.542355 -1.12621 0.02)
(0.66504 -1.05841 0.02)
(0.779362 -0.977289 0.02)
(0.139956 -1.24214 0.02)
(0.278151 -1.21866 0.02)
(0.412849 -1.17985 0.02)
(-0.278151 -1.21866 0.02)
(-0.139956 -1.24214 0.02)
(0 -1.25 0.02)
(-0.66504 -1.05841 0.02)
(-0.542355 -1.12621 0.02)
(-0.412849 -1.17985 0.02)
(-0.977289 -0.779362 0.02)
(-0.883884 -0.883884 0.02)
(-0.779362 -0.977289 0.02)
(-1.17985 -0.412849 0.02)
(-1.12621 -0.542355 0.02)
(-1.05841 -0.66504 0.02)
(-1.25 0 0.02)
(-1.24214 -0.139956 0.02)
(-1.21866 -0.278151 0.02)
(-1.17985 0.412849 0.02)
(-1.21866 0.278151 0.02)
(-1.24214 0.139956 0.02)
(-0.977289 0.779362 0.02)
(-1.05841 0.66504 0.02)
(-1.12621 0.542355 0.02)
(-0.66504 1.05841 0.02)
(-0.779362 0.977289 0.02)
(-0.883884 0.883884 0.02)
(-0.278151 1.21866 0.02)
(-0.412849 1.17985 0.02)
(-0.542355 1.12621 0.02)
(0.139956 1.24214 0.02)
(0 1.25 0.02)
(-0.139956 1.24214 0.02)
(0.542355 1.12621 0.02)
(0.412849 1.17985 0.02)
(0.278151 1.21866 0.02)
(0.883884 0.883884 0.02)
(0.779362 0.977289 0.02)
(0.66504 1.05841 0.02)
(1.12621 0.542355 0.02)
(1.05841 0.66504 0.02)
(0.977289 0.779362 0.02)
(1.21866 0.278151 0.02)
(1.17985 0.412849 0.02)
)


// edges:

112
(
(0 1)
(2 0)
(3 4)
(4 5)
(5 2)
(6 7)
(7 8)
(8 3)
(9 10)
(10 11)
(11 6)
(12 13)
(13 14)
(14 9)
(15 16)
(16 17)
(17 12)
(18 19)
(19 20)
(20 15)
(21 22)
(22 23)
(23 18)
(24 25)
(25 26)
(26 21)
(27 28)
(28 29)
(29 24)
(30 31)
(31 32)
(32 27)
(33 34)
(34 35)
(35 30)
(36 37)
(37 38)
(38 33)
(39 40)
(40 41)
(41 36)
(42 43)
(43 44)
(44 39)
(45 46)
(46 47)
(47 42)
(48 49)
(49 50)
(50 45)
(51 52)
(52 53)
(53 48)
(1 54)
(54 55)
(55 51)
(56 57)
(58 56)
(59 60)
(60 61)
(61 58)
(62 63)
(63 64)
(64 59)
(65 66)
(66 67)
(67 62)
(68 69)
(69 70)
(70 65)
(71 72)
(72 73)
(73 68)
(74 75)
(75 76)
(76 71)
(77 78)
(78 79)
(79 74)
(80 81)
(81 82)
(82 77)
(83 84)
(84 85)
(85 80)
(86 87)
(87 88)
(88 83)
(89 90)
(90 91)
(91 86)
(92 93)
(93 94)
(94 89)
(95 96)
(96 97)
(97 92)
(98 99)
(99 100)
(100 95)
(101 102)
(102 103)
(103 98)
(104 105)
(105 106)
(106 101)
(107 108)
(108 109)
(109 104)
(57 110)
(110 111)
(111 107)
)

// * * * * * * * * * * * * * * * * * * * * * * * * * * * * * * * * * * * * * //


// ************************************************************************* //
