/*--------------------------------*- C++ -*----------------------------------*\
| =========                 |                                                 |
| \\      /  F ield         | OpenFOAM: The Open Source CFD Toolbox           |
|  \\    /   O peration     | Version:  2406                                  |
|   \\  /    A nd           | Website:  www.openfoam.com                      |
|    \\/     M anipulation  |                                                 |
\*---------------------------------------------------------------------------*/
FoamFile
{
    version     2.0;
    format      ascii;
    arch        "LSB;label=32;scalar=64";
    class       extendedFeatureEdgeMesh;
    location    "constant/extendedFeatureEdgeMesh";
    object      ami.extendedFeatureEdgeMesh;
}
// * * * * * * * * * * * * * * * * * * * * * * * * * * * * * * * * * * * * * //

// points

256
(
(0.343275 0.0682816 0.59)
(0.334929 0.1016 0.59)
(0.308672 0.164989 0.59)
(0.291014 0.19445 0.59)
(0.222038 0.270554 0.59)
(0.19445 0.291014 0.59)
(0.1016 0.334929 0.59)
(2.14313e-17 0.35 0.59)
(-0.0682816 0.343275 0.59)
(-0.1016 0.334929 0.59)
(-0.164989 0.308672 0.59)
(-0.19445 0.291014 0.59)
(-0.270554 0.222038 0.59)
(-0.291014 0.19445 0.59)
(-0.334929 0.1016 0.59)
(-0.35 4.28626e-17 0.59)
(-0.343275 -0.0682816 0.59)
(-0.334929 -0.1016 0.59)
(-0.308672 -0.164989 0.59)
(-0.291014 -0.19445 0.59)
(-0.222038 -0.270554 0.59)
(-0.19445 -0.291014 0.59)
(-0.1016 -0.334929 0.59)
(-6.4294e-17 -0.35 0.59)
(0.0682816 -0.343275 0.59)
(0.1016 -0.334929 0.59)
(0.164989 -0.308672 0.59)
(0.19445 -0.291014 0.59)
(0.270554 -0.222038 0.59)
(0.291014 -0.19445 0.59)
(0.334929 -0.1016 0.59)
(0.4 -9.79717e-17 0.4)
(0.398074 0.0392069 0.4)
(0.348315 0.034306 0.4)
(0.35 -8.57253e-17 0.4)
(0.392314 0.0780361 0.4)
(0.343275 0.0682816 0.4)
(0.382776 0.116114 0.4)
(0.334929 0.1016 0.4)
(0.369552 0.153073 0.4)
(0.323358 0.133939 0.4)
(0.352769 0.188559 0.4)
(0.308672 0.164989 0.4)
(0.332588 0.222228 0.4)
(0.291014 0.19445 0.4)
(0.309204 0.253757 0.4)
(0.270554 0.222038 0.4)
(0.282843 0.282843 0.4)
(0.247487 0.247487 0.4)
(0.253757 0.309204 0.4)
(0.222038 0.270554 0.4)
(0.222228 0.332588 0.4)
(0.19445 0.291014 0.4)
(0.188559 0.352769 0.4)
(0.164989 0.308672 0.4)
(0.153073 0.369552 0.4)
(0.133939 0.323358 0.4)
(0.116114 0.382776 0.4)
(0.1016 0.334929 0.4)
(0.0780361 0.392314 0.4)
(0.0682816 0.343275 0.4)
(0.0392069 0.398074 0.4)
(0.034306 0.348315 0.4)
(2.44929e-17 0.4 0.4)
(2.14313e-17 0.35 0.4)
(-0.0392069 0.398074 0.4)
(-0.034306 0.348315 0.4)
(-0.0780361 0.392314 0.4)
(-0.0682816 0.343275 0.4)
(-0.116114 0.382776 0.4)
(-0.1016 0.334929 0.4)
(-0.153073 0.369552 0.4)
(-0.133939 0.323358 0.4)
(-0.188559 0.352769 0.4)
(-0.164989 0.308672 0.4)
(-0.222228 0.332588 0.4)
(-0.19445 0.291014 0.4)
(-0.253757 0.309204 0.4)
(-0.222038 0.270554 0.4)
(-0.282843 0.282843 0.4)
(-0.247487 0.247487 0.4)
(-0.309204 0.253757 0.4)
(-0.270554 0.222038 0.4)
(-0.332588 0.222228 0.4)
(-0.291014 0.19445 0.4)
(-0.352769 0.188559 0.4)
(-0.308672 0.164989 0.4)
(-0.369552 0.153073 0.4)
(-0.323358 0.133939 0.4)
(-0.382776 0.116114 0.4)
(-0.334929 0.1016 0.4)
(-0.392314 0.0780361 0.4)
(-0.343275 0.0682816 0.4)
(-0.398074 0.0392069 0.4)
(-0.348315 0.034306 0.4)
(-0.4 4.89859e-17 0.4)
(-0.35 4.28626e-17 0.4)
(-0.398074 -0.0392069 0.4)
(-0.348315 -0.034306 0.4)
(-0.392314 -0.0780361 0.4)
(-0.343275 -0.0682816 0.4)
(-0.382776 -0.116114 0.4)
(-0.334929 -0.1016 0.4)
(-0.369552 -0.153073 0.4)
(-0.323358 -0.133939 0.4)
(-0.352769 -0.188559 0.4)
(-0.308672 -0.164989 0.4)
(-0.332588 -0.222228 0.4)
(-0.291014 -0.19445 0.4)
(-0.309204 -0.253757 0.4)
(-0.270554 -0.222038 0.4)
(-0.282843 -0.282843 0.4)
(-0.247487 -0.247487 0.4)
(-0.253757 -0.309204 0.4)
(-0.222038 -0.270554 0.4)
(-0.222228 -0.332588 0.4)
(-0.19445 -0.291014 0.4)
(-0.188559 -0.352769 0.4)
(-0.164989 -0.308672 0.4)
(-0.153073 -0.369552 0.4)
(-0.133939 -0.323358 0.4)
(-0.116114 -0.382776 0.4)
(-0.1016 -0.334929 0.4)
(-0.0780361 -0.392314 0.4)
(-0.0682816 -0.343275 0.4)
(-0.0392069 -0.398074 0.4)
(-0.034306 -0.348315 0.4)
(-7.34788e-17 -0.4 0.4)
(-6.4294e-17 -0.35 0.4)
(0.0392069 -0.398074 0.4)
(0.034306 -0.348315 0.4)
(0.0780361 -0.392314 0.4)
(0.0682816 -0.343275 0.4)
(0.116114 -0.382776 0.4)
(0.1016 -0.334929 0.4)
(0.153073 -0.369552 0.4)
(0.133939 -0.323358 0.4)
(0.188559 -0.352769 0.4)
(0.164989 -0.308672 0.4)
(0.222228 -0.332588 0.4)
(0.19445 -0.291014 0.4)
(0.253757 -0.309204 0.4)
(0.222038 -0.270554 0.4)
(0.282843 -0.282843 0.4)
(0.247487 -0.247487 0.4)
(0.309204 -0.253757 0.4)
(0.270554 -0.222038 0.4)
(0.332588 -0.222228 0.4)
(0.291014 -0.19445 0.4)
(0.352769 -0.188559 0.4)
(0.308672 -0.164989 0.4)
(0.369552 -0.153073 0.4)
(0.323358 -0.133939 0.4)
(0.382776 -0.116114 0.4)
(0.334929 -0.1016 0.4)
(0.392314 -0.0780361 0.4)
(0.343275 -0.0682816 0.4)
(0.398074 -0.0392069 0.4)
(0.348315 -0.034306 0.4)
(0.348315 0.034306 0.59)
(0.35 -8.57253e-17 0.59)
(0.323358 0.133939 0.59)
(0.270554 0.222038 0.59)
(0.247487 0.247487 0.59)
(0.164989 0.308672 0.59)
(0.133939 0.323358 0.59)
(0.0682816 0.343275 0.59)
(0.034306 0.348315 0.59)
(-0.034306 0.348315 0.59)
(-0.133939 0.323358 0.59)
(-0.222038 0.270554 0.59)
(-0.247487 0.247487 0.59)
(-0.308672 0.164989 0.59)
(-0.323358 0.133939 0.59)
(-0.343275 0.0682816 0.59)
(-0.348315 0.034306 0.59)
(-0.348315 -0.034306 0.59)
(-0.323358 -0.133939 0.59)
(-0.270554 -0.222038 0.59)
(-0.247487 -0.247487 0.59)
(-0.164989 -0.308672 0.59)
(-0.133939 -0.323358 0.59)
(-0.0682816 -0.343275 0.59)
(-0.034306 -0.348315 0.59)
(0.034306 -0.348315 0.59)
(0.133939 -0.323358 0.59)
(0.222038 -0.270554 0.59)
(0.247487 -0.247487 0.59)
(0.308672 -0.164989 0.59)
(0.323358 -0.133939 0.59)
(0.343275 -0.0682816 0.59)
(0.348315 -0.034306 0.59)
(0.398074 0.0392069 0.59)
(0.4 -9.79717e-17 0.59)
(0.392314 0.0780361 0.59)
(0.382776 0.116114 0.59)
(0.369552 0.153073 0.59)
(0.352769 0.188559 0.59)
(0.332588 0.222228 0.59)
(0.309204 0.253757 0.59)
(0.282843 0.282843 0.59)
(0.253757 0.309204 0.59)
(0.222228 0.332588 0.59)
(0.188559 0.352769 0.59)
(0.153073 0.369552 0.59)
(0.116114 0.382776 0.59)
(0.0780361 0.392314 0.59)
(0.0392069 0.398074 0.59)
(2.44929e-17 0.4 0.59)
(-0.0392069 0.398074 0.59)
(-0.0780361 0.392314 0.59)
(-0.116114 0.382776 0.59)
(-0.153073 0.369552 0.59)
(-0.188559 0.352769 0.59)
(-0.222228 0.332588 0.59)
(-0.253757 0.309204 0.59)
(-0.282843 0.282843 0.59)
(-0.309204 0.253757 0.59)
(-0.332588 0.222228 0.59)
(-0.352769 0.188559 0.59)
(-0.369552 0.153073 0.59)
(-0.382776 0.116114 0.59)
(-0.392314 0.0780361 0.59)
(-0.398074 0.0392069 0.59)
(-0.4 4.89859e-17 0.59)
(-0.398074 -0.0392069 0.59)
(-0.392314 -0.0780361 0.59)
(-0.382776 -0.116114 0.59)
(-0.369552 -0.153073 0.59)
(-0.352769 -0.188559 0.59)
(-0.332588 -0.222228 0.59)
(-0.309204 -0.253757 0.59)
(-0.282843 -0.282843 0.59)
(-0.253757 -0.309204 0.59)
(-0.222228 -0.332588 0.59)
(-0.188559 -0.352769 0.59)
(-0.153073 -0.369552 0.59)
(-0.116114 -0.382776 0.59)
(-0.0780361 -0.392314 0.59)
(-0.0392069 -0.398074 0.59)
(-7.34788e-17 -0.4 0.59)
(0.0392069 -0.398074 0.59)
(0.0780361 -0.392314 0.59)
(0.116114 -0.382776 0.59)
(0.153073 -0.369552 0.59)
(0.188559 -0.352769 0.59)
(0.222228 -0.332588 0.59)
(0.253757 -0.309204 0.59)
(0.282843 -0.282843 0.59)
(0.309204 -0.253757 0.59)
(0.332588 -0.222228 0.59)
(0.352769 -0.188559 0.59)
(0.369552 -0.153073 0.59)
(0.382776 -0.116114 0.59)
(0.392314 -0.0780361 0.59)
(0.398074 -0.0392069 0.59)
)

// edges

576
(
(34 33)
(33 36)
(36 38)
(38 40)
(40 42)
(42 44)
(44 46)
(46 48)
(48 50)
(50 52)
(52 54)
(54 56)
(56 58)
(58 60)
(60 62)
(62 64)
(64 66)
(66 68)
(68 70)
(70 72)
(72 74)
(74 76)
(76 78)
(78 80)
(80 82)
(82 84)
(84 86)
(86 88)
(88 90)
(90 92)
(92 94)
(94 96)
(96 98)
(98 100)
(100 102)
(102 104)
(104 106)
(106 108)
(108 110)
(110 112)
(112 114)
(114 116)
(116 118)
(118 120)
(120 122)
(122 124)
(124 126)
(126 128)
(128 130)
(130 132)
(132 134)
(134 136)
(136 138)
(138 140)
(140 142)
(142 144)
(144 146)
(146 148)
(148 150)
(150 152)
(152 154)
(154 156)
(156 158)
(158 34)
(34 159)
(160 34)
(38 161)
(44 162)
(46 163)
(52 164)
(54 165)
(58 166)
(60 167)
(64 168)
(70 169)
(76 170)
(78 171)
(84 172)
(86 173)
(90 174)
(92 175)
(96 176)
(102 177)
(108 178)
(110 179)
(116 180)
(118 181)
(122 182)
(124 183)
(128 184)
(134 185)
(140 186)
(142 187)
(148 188)
(150 189)
(154 190)
(156 191)
(32 33)
(35 36)
(37 38)
(39 40)
(41 42)
(43 44)
(45 46)
(47 48)
(49 50)
(51 52)
(53 54)
(55 56)
(57 58)
(59 60)
(61 62)
(63 64)
(65 66)
(67 68)
(69 70)
(71 72)
(73 74)
(75 76)
(77 78)
(79 80)
(81 82)
(83 84)
(85 86)
(87 88)
(89 90)
(91 92)
(93 94)
(95 96)
(97 98)
(99 100)
(101 102)
(103 104)
(105 106)
(107 108)
(109 110)
(111 112)
(113 114)
(115 116)
(117 118)
(119 120)
(121 122)
(123 124)
(125 126)
(127 128)
(129 130)
(131 132)
(133 134)
(135 136)
(137 138)
(139 140)
(141 142)
(143 144)
(145 146)
(147 148)
(149 150)
(151 152)
(153 154)
(155 156)
(157 158)
(31 34)
(31 32)
(32 35)
(35 37)
(37 39)
(39 41)
(41 43)
(43 45)
(45 47)
(47 49)
(49 51)
(51 53)
(53 55)
(55 57)
(57 59)
(59 61)
(61 63)
(63 65)
(65 67)
(67 69)
(69 71)
(71 73)
(73 75)
(75 77)
(77 79)
(79 81)
(81 83)
(83 85)
(85 87)
(87 89)
(89 91)
(91 93)
(93 95)
(95 97)
(97 99)
(99 101)
(101 103)
(103 105)
(105 107)
(107 109)
(109 111)
(111 113)
(113 115)
(115 117)
(117 119)
(119 121)
(121 123)
(123 125)
(125 127)
(127 129)
(129 131)
(131 133)
(133 135)
(135 137)
(137 139)
(139 141)
(141 143)
(143 145)
(145 147)
(147 149)
(149 151)
(151 153)
(153 155)
(155 157)
(157 31)
(192 193)
(160 159)
(194 192)
(159 0)
(195 194)
(0 1)
(196 195)
(1 161)
(197 196)
(161 2)
(198 197)
(2 3)
(199 198)
(3 162)
(200 199)
(162 163)
(201 200)
(163 4)
(202 201)
(4 5)
(203 202)
(5 164)
(204 203)
(164 165)
(205 204)
(165 6)
(206 205)
(6 166)
(207 206)
(166 167)
(208 207)
(167 7)
(209 208)
(7 168)
(210 209)
(168 8)
(211 210)
(8 9)
(212 211)
(9 169)
(213 212)
(169 10)
(214 213)
(10 11)
(215 214)
(11 170)
(216 215)
(170 171)
(217 216)
(171 12)
(218 217)
(12 13)
(219 218)
(13 172)
(220 219)
(172 173)
(221 220)
(173 14)
(222 221)
(14 174)
(223 222)
(174 175)
(224 223)
(175 15)
(225 224)
(15 176)
(226 225)
(176 16)
(227 226)
(16 17)
(228 227)
(17 177)
(229 228)
(177 18)
(230 229)
(18 19)
(231 230)
(19 178)
(232 231)
(178 179)
(233 232)
(179 20)
(234 233)
(20 21)
(235 234)
(21 180)
(236 235)
(180 181)
(237 236)
(181 22)
(238 237)
(22 182)
(239 238)
(182 183)
(240 239)
(183 23)
(241 240)
(23 184)
(242 241)
(184 24)
(243 242)
(24 25)
(244 243)
(25 185)
(245 244)
(185 26)
(246 245)
(26 27)
(247 246)
(27 186)
(248 247)
(186 187)
(249 248)
(187 28)
(250 249)
(28 29)
(251 250)
(29 188)
(252 251)
(188 189)
(253 252)
(189 30)
(254 253)
(30 190)
(255 254)
(190 191)
(193 255)
(191 160)
(159 33)
(33 0)
(0 36)
(36 1)
(1 38)
(161 40)
(40 2)
(2 42)
(42 3)
(3 44)
(162 46)
(163 48)
(48 4)
(4 50)
(50 5)
(5 52)
(164 54)
(165 56)
(56 6)
(6 58)
(166 60)
(167 62)
(62 7)
(7 64)
(168 66)
(66 8)
(8 68)
(68 9)
(9 70)
(169 72)
(72 10)
(10 74)
(74 11)
(11 76)
(170 78)
(171 80)
(80 12)
(12 82)
(82 13)
(13 84)
(172 86)
(173 88)
(88 14)
(14 90)
(174 92)
(175 94)
(94 15)
(15 96)
(176 98)
(98 16)
(16 100)
(100 17)
(17 102)
(177 104)
(104 18)
(18 106)
(106 19)
(19 108)
(178 110)
(179 112)
(112 20)
(20 114)
(114 21)
(21 116)
(180 118)
(181 120)
(120 22)
(22 122)
(182 124)
(183 126)
(126 23)
(23 128)
(184 130)
(130 24)
(24 132)
(132 25)
(25 134)
(185 136)
(136 26)
(26 138)
(138 27)
(27 140)
(186 142)
(187 144)
(144 28)
(28 146)
(146 29)
(29 148)
(188 150)
(189 152)
(152 30)
(30 154)
(190 156)
(191 158)
(158 160)
(33 31)
(32 34)
(36 32)
(35 33)
(38 35)
(37 36)
(40 37)
(39 38)
(42 39)
(41 40)
(44 41)
(43 42)
(46 43)
(45 44)
(48 45)
(47 46)
(50 47)
(49 48)
(52 49)
(51 50)
(54 51)
(53 52)
(56 53)
(55 54)
(58 55)
(57 56)
(60 57)
(59 58)
(62 59)
(61 60)
(64 61)
(63 62)
(66 63)
(65 64)
(68 65)
(67 66)
(70 67)
(69 68)
(72 69)
(71 70)
(74 71)
(73 72)
(76 73)
(75 74)
(78 75)
(77 76)
(80 77)
(79 78)
(82 79)
(81 80)
(84 81)
(83 82)
(86 83)
(85 84)
(88 85)
(87 86)
(90 87)
(89 88)
(92 89)
(91 90)
(94 91)
(93 92)
(96 93)
(95 94)
(98 95)
(97 96)
(100 97)
(99 98)
(102 99)
(101 100)
(104 101)
(103 102)
(106 103)
(105 104)
(108 105)
(107 106)
(110 107)
(109 108)
(112 109)
(111 110)
(114 111)
(113 112)
(116 113)
(115 114)
(118 115)
(117 116)
(120 117)
(119 118)
(122 119)
(121 120)
(124 121)
(123 122)
(126 123)
(125 124)
(128 125)
(127 126)
(130 127)
(129 128)
(132 129)
(131 130)
(134 131)
(133 132)
(136 133)
(135 134)
(138 135)
(137 136)
(140 137)
(139 138)
(142 139)
(141 140)
(144 141)
(143 142)
(146 143)
(145 144)
(148 145)
(147 146)
(150 147)
(149 148)
(152 149)
(151 150)
(154 151)
(153 152)
(156 153)
(155 154)
(158 155)
(157 156)
(34 157)
(31 158)
)

// concaveStart mixedStart nonFeatureStart
0 31 192
// internalStart flatStart openStart multipleStart
161 448 448 576
// normals

512
(
(0 0 1)
(0 0 -1)
(0 0 1)
(0 0 -1)
(0 0 1)
(0 0 -1)
(0 0 1)
(0 0 -1)
(0 0 1)
(0 0 -1)
(0 0 1)
(0 0 -1)
(0 0 1)
(0 0 -1)
(0 0 1)
(0 0 -1)
(0 0 1)
(0 0 -1)
(0 0 1)
(0 0 -1)
(0 0 1)
(0 0 -1)
(0 0 1)
(0 0 -1)
(0 0 1)
(0 0 -1)
(0 0 1)
(0 0 -1)
(0 0 1)
(0 0 -1)
(0 0 1)
(0 0 -1)
(0 0 1)
(0 0 -1)
(0 0 1)
(0 0 -1)
(0 0 1)
(0 0 -1)
(0 0 1)
(0 0 -1)
(0 0 1)
(0 0 -1)
(0 0 1)
(0 0 -1)
(0 0 1)
(0 0 -1)
(0 0 1)
(0 0 -1)
(0 0 1)
(0 0 -1)
(0 0 1)
(0 0 -1)
(0 0 1)
(0 0 -1)
(0 0 1)
(0 0 -1)
(0 0 1)
(0 0 -1)
(0 0 1)
(0 0 -1)
(0 0 1)
(0 0 -1)
(0 0 1)
(0 0 -1)
(0 0 1)
(-0 0 -1)
(0 0 1)
(-0 0 -1)
(0 0 1)
(-0 0 -1)
(0 0 1)
(-0 0 -1)
(0 0 1)
(-0 0 -1)
(0 0 1)
(-0 0 -1)
(-0 0 1)
(-0 0 -1)
(-0 0 1)
(-0 0 -1)
(-0 0 1)
(-0 0 -1)
(-0 0 1)
(-0 0 -1)
(-0 0 1)
(-0 0 -1)
(-0 0 1)
(-0 0 -1)
(-0 0 1)
(-0 0 -1)
(-0 0 1)
(-0 0 -1)
(-0 0 1)
(-0 0 -1)
(-0 0 1)
(-0 0 -1)
(0 0 1)
(0 -0 -1)
(0 0 1)
(0 -0 -1)
(0 0 1)
(0 -0 -1)
(0 0 1)
(0 -0 -1)
(0 0 1)
(0 -0 -1)
(0 0 1)
(0 -0 -1)
(0 -0 1)
(0 -0 -1)
(0 -0 1)
(0 -0 -1)
(0 -0 1)
(0 -0 -1)
(0 -0 1)
(0 -0 -1)
(0 -0 1)
(0 -0 -1)
(0 -0 1)
(0 -0 -1)
(0 -0 1)
(0 -0 -1)
(0 -0 1)
(0 -0 -1)
(0 -0 1)
(0 -0 -1)
(0 -0 1)
(0 -0 -1)
(-0.998795 -0.0490678 -0)
(-0.989177 -0.14673 -0)
(-0.970031 -0.242981 -0)
(-0.941544 -0.336889 -0)
(-0.903989 -0.427556 -0)
(-0.857729 -0.514102 -0)
(-0.803207 -0.5957 -0)
(-0.740951 -0.671559 -0)
(-0.671559 -0.740951 -0)
(-0.5957 -0.803207 -0)
(-0.514102 -0.857729 -0)
(-0.427556 -0.903989 -0)
(-0.336889 -0.941544 -0)
(-0.242981 -0.970031 -0)
(-0.14673 -0.989177 -0)
(-0.0490678 -0.998795 -0)
(0.0490678 -0.998795 0)
(0.14673 -0.989177 0)
(0.242981 -0.970031 0)
(0.336889 -0.941544 0)
(0.427556 -0.903989 0)
(0.514102 -0.857729 0)
(0.5957 -0.803207 0)
(0.671559 -0.740951 0)
(0.740951 -0.671559 0)
(0.803207 -0.5957 0)
(0.857729 -0.514102 0)
(0.903989 -0.427556 0)
(0.941544 -0.336889 0)
(0.970031 -0.242981 0)
(0.989177 -0.14673 0)
(0.998795 -0.0490678 0)
(0.998795 0.0490678 0)
(0.989177 0.14673 0)
(0.970031 0.242981 0)
(0.941544 0.336889 0)
(0.903989 0.427556 0)
(0.857729 0.514102 0)
(0.803207 0.5957 0)
(0.740951 0.671559 0)
(0.671559 0.740951 0)
(0.5957 0.803207 0)
(0.514102 0.857729 0)
(0.427556 0.903989 0)
(0.336889 0.941544 0)
(0.242981 0.970031 0)
(0.14673 0.989177 0)
(0.0490678 0.998795 0)
(-0.0490678 0.998795 0)
(-0.14673 0.989177 0)
(-0.242981 0.970031 0)
(-0.336889 0.941544 0)
(-0.427556 0.903989 0)
(-0.514102 0.857729 0)
(-0.5957 0.803207 0)
(-0.671559 0.740951 0)
(-0.740951 0.671559 0)
(-0.803207 0.5957 0)
(-0.857729 0.514102 0)
(-0.903989 0.427556 0)
(-0.941544 0.336889 0)
(-0.970031 0.242981 0)
(-0.989177 0.14673 0)
(-0.998795 0.0490678 0)
(0.998795 0.0490678 -0)
(0.941544 0.336889 -0)
(0.803207 0.5957 -0)
(0.740951 0.671559 -0)
(0.514102 0.857729 -0)
(0.427556 0.903989 -0)
(0.242981 0.970031 -0)
(0.14673 0.989177 -0)
(-0.0490678 0.998795 0)
(-0.336889 0.941544 0)
(-0.5957 0.803207 0)
(-0.671559 0.740951 0)
(-0.857729 0.514102 0)
(-0.903989 0.427556 0)
(-0.970031 0.242981 0)
(-0.989177 0.14673 0)
(-0.998795 -0.0490678 0)
(-0.941544 -0.336889 0)
(-0.803207 -0.5957 0)
(-0.740951 -0.671559 0)
(-0.514102 -0.857729 0)
(-0.427556 -0.903989 0)
(-0.242981 -0.970031 0)
(-0.14673 -0.989177 0)
(0.0490678 -0.998795 0)
(0.336889 -0.941544 0)
(0.5957 -0.803207 0)
(0.671559 -0.740951 0)
(0.857729 -0.514102 0)
(0.903989 -0.427556 0)
(0.970031 -0.242981 0)
(0.989177 -0.14673 0)
(-0.998795 -0.0490681 -0)
(-0.989177 -0.14673 -0)
(-0.970031 -0.24298 -0)
(-0.941544 -0.33689 -0)
(-0.903989 -0.427555 -0)
(-0.857728 -0.514103 -0)
(-0.803208 -0.595699 -0)
(-0.740951 -0.671559 -0)
(-0.671559 -0.740951 -0)
(-0.595699 -0.803208 -0)
(-0.514103 -0.857728 -0)
(-0.427555 -0.903989 -0)
(-0.33689 -0.941544 -0)
(-0.24298 -0.970031 -0)
(-0.14673 -0.989177 -0)
(-0.0490681 -0.998795 -0)
(0.0490681 -0.998795 0)
(0.14673 -0.989177 0)
(0.24298 -0.970031 0)
(0.33689 -0.941544 0)
(0.427555 -0.903989 0)
(0.514103 -0.857728 0)
(0.595699 -0.803208 0)
(0.671559 -0.740951 0)
(0.740951 -0.671559 0)
(0.803208 -0.595699 0)
(0.857728 -0.514103 0)
(0.903989 -0.427555 0)
(0.941544 -0.33689 0)
(0.970031 -0.24298 0)
(0.989177 -0.14673 0)
(0.998795 -0.0490681 0)
(0.998795 0.0490681 0)
(0.989177 0.14673 0)
(0.970031 0.24298 0)
(0.941544 0.33689 0)
(0.903989 0.427555 0)
(0.857728 0.514103 0)
(0.803208 0.595699 0)
(0.740951 0.671559 0)
(0.671559 0.740951 0)
(0.595699 0.803208 0)
(0.514103 0.857728 0)
(0.427555 0.903989 0)
(0.33689 0.941544 0)
(0.24298 0.970031 0)
(0.14673 0.989177 0)
(0.0490681 0.998795 0)
(-0.0490681 0.998795 0)
(-0.14673 0.989177 0)
(-0.24298 0.970031 0)
(-0.33689 0.941544 0)
(-0.427555 0.903989 0)
(-0.514103 0.857728 0)
(-0.595699 0.803208 0)
(-0.671559 0.740951 0)
(-0.740951 0.671559 0)
(-0.803208 0.595699 0)
(-0.857728 0.514103 0)
(-0.903989 0.427555 0)
(-0.941544 0.33689 0)
(-0.970031 0.24298 0)
(-0.989177 0.14673 0)
(-0.998795 0.0490681 0)
(0 0 -1)
(-0.998795 -0.0490681 0)
(0 0 -1)
(0 0 -1)
(-0.989177 -0.14673 0)
(0 0 -1)
(0.989177 0.14673 -0)
(0 0 -1)
(-0.970031 -0.24298 0)
(0 0 -1)
(0.970031 0.242981 -0)
(0 0 -1)
(-0.941544 -0.33689 0)
(0 0 -1)
(0 0 -1)
(-0.903989 -0.427555 0)
(0 0 -1)
(0.903989 0.427556 -0)
(0 0 -1)
(-0.857728 -0.514103 0)
(0 0 -1)
(0.857729 0.514102 -0)
(0 0 -1)
(-0.803208 -0.595699 0)
(0 0 -1)
(0 0 -1)
(-0.740951 -0.671559 0)
(0 0 -1)
(0 0 -1)
(-0.671559 -0.740951 0)
(0 0 -1)
(0.671559 0.740951 -0)
(0 0 -1)
(-0.595699 -0.803208 0)
(0 0 -1)
(0.5957 0.803207 -0)
(0 0 -1)
(-0.514103 -0.857728 0)
(0 0 -1)
(0 0 -1)
(-0.427555 -0.903989 0)
(0 0 -1)
(0 0 -1)
(-0.33689 -0.941544 0)
(0 0 -1)
(0.336889 0.941544 -0)
(0 0 -1)
(-0.24298 -0.970031 0)
(0 0 -1)
(0 0 -1)
(-0.14673 -0.989177 0)
(0 0 -1)
(0 0 -1)
(-0.0490681 -0.998795 0)
(0 0 -1)
(0.0490678 0.998795 -0)
(0 0 -1)
(0.0490681 -0.998795 0)
(-0 0 -1)
(0 0 -1)
(0.14673 -0.989177 0)
(-0 0 -1)
(-0.14673 0.989177 0)
(0 0 -1)
(0.24298 -0.970031 0)
(-0 0 -1)
(-0.242981 0.970031 0)
(0 0 -1)
(0.33689 -0.941544 0)
(-0 0 -1)
(0 0 -1)
(0.427555 -0.903989 0)
(-0 0 -1)
(-0.427556 0.903989 0)
(0 0 -1)
(0.514103 -0.857728 0)
(-0 0 -1)
(-0.514102 0.857729 0)
(0 0 -1)
(0.595699 -0.803208 0)
(-0 0 -1)
(0 0 -1)
(0.671559 -0.740951 0)
(-0 0 -1)
(0 0 -1)
(0.740951 -0.671559 0)
(-0 0 -1)
(-0.740951 0.671559 0)
(0 0 -1)
(0.803208 -0.595699 0)
(-0 0 -1)
(-0.803207 0.5957 0)
(0 0 -1)
(0.857728 -0.514103 0)
(-0 0 -1)
(0 0 -1)
(0.903989 -0.427555 0)
(-0 0 -1)
(0 0 -1)
(0.941544 -0.33689 0)
(-0 0 -1)
(-0.941544 0.336889 0)
(0 0 -1)
(0.970031 -0.24298 0)
(-0 0 -1)
(0 0 -1)
(0.989177 -0.14673 0)
(-0 0 -1)
(0 0 -1)
(0.998795 -0.0490681 0)
(-0 0 -1)
(-0.998795 0.0490678 0)
(-0 0 -1)
(0.998795 0.0490681 -0)
(-0 -0 -1)
(-0 0 -1)
(0.989177 0.14673 -0)
(0 -0 -1)
(-0.989177 -0.14673 0)
(-0 0 -1)
(0.970031 0.24298 -0)
(0 -0 -1)
(-0.970031 -0.242981 0)
(-0 0 -1)
(0.941544 0.33689 -0)
(0 -0 -1)
(-0 0 -1)
(0.903989 0.427555 -0)
(0 -0 -1)
(-0.903989 -0.427556 0)
(-0 0 -1)
(0.857728 0.514103 -0)
(0 -0 -1)
(-0.857729 -0.514102 0)
(0 0 -1)
(0.803208 0.595699 -0)
(0 -0 -1)
(0 0 -1)
(0.740951 0.671559 -0)
(0 -0 -1)
(0 0 -1)
(0.671559 0.740951 -0)
(0 -0 -1)
(-0.671559 -0.740951 0)
(0 0 -1)
(0.595699 0.803208 -0)
(0 -0 -1)
(-0.5957 -0.803207 0)
(0 0 -1)
(0.514103 0.857728 -0)
(0 -0 -1)
(0 0 -1)
(0.427555 0.903989 -0)
(0 -0 -1)
(0 0 -1)
(0.33689 0.941544 -0)
(0 -0 -1)
(-0.336889 -0.941544 0)
(0 0 -1)
(0.24298 0.970031 -0)
(0 -0 -1)
(0 0 -1)
(0.14673 0.989177 -0)
(0 -0 -1)
(0 0 -1)
(0.0490681 0.998795 -0)
(0 -0 -1)
(-0.0490678 -0.998795 0)
(0 -0 -1)
(-0.0490681 0.998795 0)
(0 -0 -1)
(0 -0 -1)
(-0.14673 0.989177 0)
(0 0 -1)
(0.14673 -0.989177 0)
(0 -0 -1)
(-0.24298 0.970031 0)
(0 0 -1)
(0.242981 -0.970031 0)
(0 -0 -1)
(-0.33689 0.941544 0)
(0 0 -1)
(0 -0 -1)
(-0.427555 0.903989 0)
(0 0 -1)
(0.427556 -0.903989 0)
(0 -0 -1)
(-0.514103 0.857728 0)
(0 0 -1)
(0.514102 -0.857729 0)
(0 0 -1)
(-0.595699 0.803208 0)
(0 0 -1)
(0 0 -1)
(-0.671559 0.740951 0)
(0 0 -1)
(0 0 -1)
(-0.740951 0.671559 0)
(0 0 -1)
(0.740951 -0.671559 0)
(0 0 -1)
(-0.803208 0.595699 0)
(0 0 -1)
(0.803207 -0.5957 0)
(0 0 -1)
(-0.857728 0.514103 0)
(0 0 -1)
(0 0 -1)
(-0.903989 0.427555 0)
(0 0 -1)
(0 0 -1)
(-0.941544 0.33689 0)
(0 0 -1)
(0.941544 -0.336889 0)
(0 0 -1)
(-0.970031 0.24298 0)
(0 0 -1)
(0 0 -1)
(-0.989177 0.14673 0)
(0 0 -1)
(0 0 -1)
(-0.998795 0.0490681 0)
(0 0 -1)
(0.998795 -0.0490678 0)
)

// normal volume types

512
(
0
0
0
0
0
0
0
0
0
0
0
0
0
0
0
0
0
0
0
0
0
0
0
0
0
0
0
0
0
0
0
0
0
0
0
0
0
0
0
0
0
0
0
0
0
0
0
0
0
0
0
0
0
0
0
0
0
0
0
0
0
0
0
0
0
0
0
0
0
0
0
0
0
0
0
0
0
0
0
0
0
0
0
0
0
0
0
0
0
0
0
0
0
0
0
0
0
0
0
0
0
0
0
0
0
0
0
0
0
0
0
0
0
0
0
0
0
0
0
0
0
0
0
0
0
0
0
0
0
0
0
0
0
0
0
0
0
0
0
0
0
0
0
0
0
0
0
0
0
0
0
0
0
0
0
0
0
0
0
0
0
0
0
0
0
0
0
0
0
0
0
0
0
0
0
0
0
0
0
0
0
0
0
0
0
0
0
0
0
0
0
0
0
0
0
0
0
0
0
0
0
0
0
0
0
0
0
0
0
0
0
0
0
0
0
0
0
0
0
0
0
0
0
0
0
0
0
0
0
0
0
0
0
0
0
0
0
0
0
0
0
0
0
0
0
0
0
0
0
0
0
0
0
0
0
0
0
0
0
0
0
0
0
0
0
0
0
0
0
0
0
0
0
0
0
0
0
0
0
0
0
0
0
0
0
0
0
0
0
0
0
0
0
0
0
0
0
0
0
0
0
0
0
0
0
0
0
0
0
0
0
0
0
0
0
0
0
0
0
0
0
0
0
0
0
0
0
0
0
0
0
0
0
0
0
0
0
0
0
0
0
0
0
0
0
0
0
0
0
0
0
0
0
0
0
0
0
0
0
0
0
0
0
0
0
0
0
0
0
0
0
0
0
0
0
0
0
0
0
0
0
0
0
0
0
0
0
0
0
0
0
0
0
0
0
0
0
0
0
0
0
0
0
0
0
0
0
0
0
0
0
0
0
0
0
0
0
0
0
0
0
0
0
0
0
0
0
0
0
0
0
0
0
0
0
0
0
0
0
0
0
0
0
0
0
0
0
0
0
0
0
0
0
0
0
0
0
0
0
0
0
0
0
0
0
0
0
0
0
0
0
0
0
0
0
0
0
0
0
0
0
0
0
0
0
0
0
0
0
0
0
0
0
0
0
0
0
0
0
0
0
0
0
0
0
0
0
0
0
0
0
0
)

// normalDirections

576
(
2(1 -1)
2(1 -1)
2(1 -1)
2(1 -1)
2(1 -1)
2(1 -1)
2(1 -1)
2(1 -1)
2(1 -1)
2(1 -1)
2(1 -1)
2(1 -1)
2(1 -1)
2(1 -1)
2(1 -1)
2(1 -1)
2(1 -1)
2(1 -1)
2(1 -1)
2(1 -1)
2(1 -1)
2(1 -1)
2(1 -1)
2(1 -1)
2(1 -1)
2(1 -1)
2(1 -1)
2(1 -1)
2(1 -1)
2(1 -1)
2(1 -1)
2(1 -1)
2(1 -1)
2(1 -1)
2(1 -1)
2(1 -1)
2(1 -1)
2(1 -1)
2(1 -1)
2(1 -1)
2(1 -1)
2(1 -1)
2(1 -1)
2(1 -1)
2(1 -1)
2(1 -1)
2(1 -1)
2(1 -1)
2(1 -1)
2(1 -1)
2(1 -1)
2(1 -1)
2(1 -1)
2(1 -1)
2(1 -1)
2(1 -1)
2(1 -1)
2(1 -1)
2(1 -1)
2(1 -1)
2(1 -1)
2(1 -1)
2(1 -1)
2(1 -1)
2{1}
2{1}
2{1}
2{1}
2{1}
2{1}
2{1}
2{1}
2{1}
2{1}
2{1}
2{1}
2{1}
2{1}
2{1}
2{1}
2{1}
2{1}
2{1}
2{1}
2{1}
2{1}
2{1}
2{1}
2{1}
2{1}
2{1}
2{1}
2{1}
2{1}
2{1}
2{1}
2{1}
2(1 -1)
2(1 -1)
2(1 -1)
2(1 -1)
2(1 -1)
2(1 -1)
2(1 -1)
2(1 -1)
2(1 -1)
2(1 -1)
2(1 -1)
2(1 -1)
2(1 -1)
2(1 -1)
2(1 -1)
2(1 -1)
2(1 -1)
2(1 -1)
2(1 -1)
2(1 -1)
2(1 -1)
2(1 -1)
2(1 -1)
2(1 -1)
2(1 -1)
2(1 -1)
2(1 -1)
2(1 -1)
2(1 -1)
2(1 -1)
2(1 -1)
2(1 -1)
2(1 -1)
2(1 -1)
2(1 -1)
2(1 -1)
2(1 -1)
2(1 -1)
2(1 -1)
2(1 -1)
2(1 -1)
2(1 -1)
2(1 -1)
2(1 -1)
2(1 -1)
2(1 -1)
2(1 -1)
2(1 -1)
2(1 -1)
2(1 -1)
2(1 -1)
2(1 -1)
2(1 -1)
2(1 -1)
2(1 -1)
2(1 -1)
2(1 -1)
2(1 -1)
2(1 -1)
2(1 -1)
2(1 -1)
2(1 -1)
2(1 -1)
2(1 -1)
2(1 -1)
2(1 -1)
2(1 -1)
2(1 -1)
2(1 -1)
2(1 -1)
2(1 -1)
2(1 -1)
2(1 -1)
2(1 -1)
2(1 -1)
2(1 -1)
2(1 -1)
2(1 -1)
2(1 -1)
2(1 -1)
2(1 -1)
2(1 -1)
2(1 -1)
2(1 -1)
2(1 -1)
2(1 -1)
2(1 -1)
2(1 -1)
2(1 -1)
2(1 -1)
2(1 -1)
2(1 -1)
2(1 -1)
2(1 -1)
2(1 -1)
2(1 -1)
2(1 -1)
2(1 -1)
2(1 -1)
2(1 -1)
2(1 -1)
2(1 -1)
2(1 -1)
2(1 -1)
2(1 -1)
2(1 -1)
2(1 -1)
2(1 -1)
2(1 -1)
2(1 -1)
2(1 -1)
2(1 -1)
2(1 -1)
2(1 -1)
2(1 -1)
2(1 -1)
2(1 -1)
2(1 -1)
2(1 -1)
2(1 -1)
2(1 -1)
2(1 -1)
2(1 -1)
2(1 -1)
2(1 -1)
2(1 -1)
2(1 -1)
2(1 -1)
2(1 -1)
2(1 -1)
2(1 -1)
2(1 -1)
2(1 -1)
2(1 -1)
2(1 -1)
2(1 -1)
2(1 -1)
2(1 -1)
2(1 -1)
2(1 -1)
2(1 -1)
2(1 -1)
2(1 -1)
2(1 -1)
2(1 -1)
2(1 -1)
2(1 -1)
2(1 -1)
2(1 -1)
2(1 -1)
2(1 -1)
2(1 -1)
2(1 -1)
2(1 -1)
2(1 -1)
2(1 -1)
2(1 -1)
2(1 -1)
2(1 -1)
2(1 -1)
2(1 -1)
2(1 -1)
2(1 -1)
2(1 -1)
2(1 -1)
2(1 -1)
2(1 -1)
2(1 -1)
2(1 -1)
2(1 -1)
2(1 -1)
2(1 -1)
2(1 -1)
2(1 -1)
2(1 -1)
2(1 -1)
2(1 -1)
2(1 -1)
2(1 -1)
2(1 -1)
2(1 -1)
2(1 -1)
2(1 -1)
2(1 -1)
2(1 -1)
2(1 -1)
2(1 -1)
2(1 -1)
2(1 -1)
2(1 -1)
2(1 -1)
2(1 -1)
2(1 -1)
2(1 -1)
2(1 -1)
2(1 -1)
2(1 -1)
2(1 -1)
2(1 -1)
2(1 -1)
2(1 -1)
2(1 -1)
2(1 -1)
2(1 -1)
2(1 -1)
2(1 -1)
2(1 -1)
2(1 -1)
2(1 -1)
2(1 -1)
2(1 -1)
2(1 -1)
2(1 -1)
2(1 -1)
2(1 -1)
2(1 -1)
2(1 -1)
2(1 -1)
2(1 -1)
2(1 -1)
2(1 -1)
2(1 -1)
2(1 -1)
2(1 -1)
2(1 -1)
2(1 -1)
2(1 -1)
2(1 -1)
2(1 -1)
2(1 -1)
2(1 -1)
2(1 -1)
2(1 -1)
2(1 -1)
2(1 -1)
2(1 -1)
2(1 -1)
2(1 -1)
2(1 -1)
2(1 -1)
2(1 -1)
2(1 -1)
2(1 -1)
2(1 -1)
2(1 -1)
2(1 -1)
2(1 -1)
2(1 -1)
2(1 -1)
2(1 -1)
2(1 -1)
2(1 -1)
2(1 -1)
2(1 -1)
2(1 -1)
2(1 -1)
2{1}
2{1}
2{1}
2{1}
2{1}
2{1}
2{1}
2{1}
2{1}
2{1}
2{1}
2{1}
2{1}
2{1}
2{1}
2{1}
2{1}
2{1}
2{1}
2{1}
2{1}
2{1}
2{1}
2{1}
2{1}
2{1}
2{1}
2{1}
2{1}
2{1}
2{1}
2{1}
2{1}
2{1}
2{1}
2{1}
2{1}
2{1}
2{1}
2{1}
2{1}
2{1}
2{1}
2{1}
2{1}
2{1}
2{1}
2{1}
2{1}
2{1}
2{1}
2{1}
2{1}
2{1}
2{1}
2{1}
2{1}
2{1}
2{1}
2{1}
2{1}
2{1}
2{1}
2{1}
2{1}
2{1}
2{1}
2{1}
2{1}
2{1}
2{1}
2{1}
2{1}
2{1}
2{1}
2{1}
2{1}
2{1}
2{1}
2{1}
2{1}
2{1}
2{1}
2{1}
2{1}
2{1}
2{1}
2{1}
2{1}
2{1}
2{1}
2{1}
2{1}
2{1}
2{1}
1(1)
1(1)
1(1)
1(1)
1(1)
1(1)
1(1)
1(1)
1(1)
1(1)
1(1)
1(1)
1(1)
1(1)
1(1)
1(1)
1(1)
1(1)
1(1)
1(1)
1(1)
1(1)
1(1)
1(1)
1(1)
1(1)
1(1)
1(1)
1(1)
1(1)
1(1)
1(1)
1(1)
1(1)
1(1)
1(1)
1(1)
1(1)
1(1)
1(1)
1(1)
1(1)
1(1)
1(1)
1(1)
1(1)
1(1)
1(1)
1(1)
1(1)
1(1)
1(1)
1(1)
1(1)
1(1)
1(1)
1(1)
1(1)
1(1)
1(1)
1(1)
1(1)
1(1)
1(1)
1(1)
1(1)
1(1)
1(1)
1(1)
1(1)
1(1)
1(1)
1(1)
1(1)
1(1)
1(1)
1(1)
1(1)
1(1)
1(1)
1(1)
1(1)
1(1)
1(1)
1(1)
1(1)
1(1)
1(1)
1(1)
1(1)
1(1)
1(1)
1(1)
1(1)
1(1)
1(1)
1(1)
1(1)
1(1)
1(1)
1(1)
1(1)
1(1)
1(1)
1(1)
1(1)
1(1)
1(1)
1(1)
1(1)
1(1)
1(1)
1(1)
1(1)
1(1)
1(1)
1(1)
1(1)
1(1)
1(1)
1(1)
1(1)
1(1)
1(1)
1(1)
1(1)
1(1)
1(1)
)

// edgeNormals

576
(
2(1 128)
2(3 129)
2(5 130)
2(7 131)
2(9 132)
2(11 133)
2(13 134)
2(15 135)
2(17 136)
2(19 137)
2(21 138)
2(23 139)
2(25 140)
2(27 141)
2(29 142)
2(31 143)
2(33 144)
2(35 145)
2(37 146)
2(39 147)
2(41 148)
2(43 149)
2(45 150)
2(47 151)
2(49 152)
2(51 153)
2(53 154)
2(55 155)
2(57 156)
2(59 157)
2(61 158)
2(63 159)
2(65 160)
2(67 161)
2(69 162)
2(71 163)
2(73 164)
2(75 165)
2(77 166)
2(79 167)
2(81 168)
2(83 169)
2(85 170)
2(87 171)
2(89 172)
2(91 173)
2(93 174)
2(95 175)
2(97 176)
2(99 177)
2(101 178)
2(103 179)
2(105 180)
2(107 181)
2(109 182)
2(111 183)
2(113 184)
2(115 185)
2(117 186)
2(119 187)
2(121 188)
2(123 189)
2(125 190)
2(127 191)
2(192 128)
2(192 191)
2(193 131)
2(194 134)
2(195 135)
2(196 138)
2(197 139)
2(198 141)
2(199 142)
2(200 144)
2(201 147)
2(202 150)
2(203 151)
2(204 154)
2(205 155)
2(206 157)
2(207 158)
2(208 160)
2(209 163)
2(210 166)
2(211 167)
2(212 170)
2(213 171)
2(214 173)
2(215 174)
2(216 176)
2(217 179)
2(218 182)
2(219 183)
2(220 186)
2(221 187)
2(222 189)
2(223 190)
2(0 1)
2(2 3)
2(4 5)
2(6 7)
2(8 9)
2(10 11)
2(12 13)
2(14 15)
2(16 17)
2(18 19)
2(20 21)
2(22 23)
2(24 25)
2(26 27)
2(28 29)
2(30 31)
2(32 33)
2(34 35)
2(36 37)
2(38 39)
2(40 41)
2(42 43)
2(44 45)
2(46 47)
2(48 49)
2(50 51)
2(52 53)
2(54 55)
2(56 57)
2(58 59)
2(60 61)
2(62 63)
2(64 65)
2(66 67)
2(68 69)
2(70 71)
2(72 73)
2(74 75)
2(76 77)
2(78 79)
2(80 81)
2(82 83)
2(84 85)
2(86 87)
2(88 89)
2(90 91)
2(92 93)
2(94 95)
2(96 97)
2(98 99)
2(100 101)
2(102 103)
2(104 105)
2(106 107)
2(108 109)
2(110 111)
2(112 113)
2(114 115)
2(116 117)
2(118 119)
2(120 121)
2(122 123)
2(124 125)
2(126 127)
2(0 224)
2(2 225)
2(4 226)
2(6 227)
2(8 228)
2(10 229)
2(12 230)
2(14 231)
2(16 232)
2(18 233)
2(20 234)
2(22 235)
2(24 236)
2(26 237)
2(28 238)
2(30 239)
2(32 240)
2(34 241)
2(36 242)
2(38 243)
2(40 244)
2(42 245)
2(44 246)
2(46 247)
2(48 248)
2(50 249)
2(52 250)
2(54 251)
2(56 252)
2(58 253)
2(60 254)
2(62 255)
2(64 256)
2(66 257)
2(68 258)
2(70 259)
2(72 260)
2(74 261)
2(76 262)
2(78 263)
2(80 264)
2(82 265)
2(84 266)
2(86 267)
2(88 268)
2(90 269)
2(92 270)
2(94 271)
2(96 272)
2(98 273)
2(100 274)
2(102 275)
2(104 276)
2(106 277)
2(108 278)
2(110 279)
2(112 280)
2(114 281)
2(116 282)
2(118 283)
2(120 284)
2(122 285)
2(124 286)
2(126 287)
2(288 289)
2(290 192)
2(291 292)
2(293 294)
2(295 296)
2(297 298)
2(299 300)
2(301 193)
2(302 303)
2(304 305)
2(306 307)
2(308 309)
2(310 311)
2(312 194)
2(313 314)
2(315 195)
2(316 317)
2(318 319)
2(320 321)
2(322 323)
2(324 325)
2(326 196)
2(327 328)
2(329 197)
2(330 331)
2(332 333)
2(334 335)
2(336 198)
2(337 338)
2(339 199)
2(340 341)
2(342 343)
2(344 345)
2(346 200)
2(347 348)
2(349 350)
2(351 352)
2(353 354)
2(355 356)
2(357 201)
2(358 359)
2(360 361)
2(362 363)
2(364 365)
2(366 367)
2(368 202)
2(369 370)
2(371 203)
2(372 373)
2(374 375)
2(376 377)
2(378 379)
2(380 381)
2(382 204)
2(383 384)
2(385 205)
2(386 387)
2(388 389)
2(390 391)
2(392 206)
2(393 394)
2(395 207)
2(396 397)
2(398 399)
2(400 401)
2(402 208)
2(403 404)
2(405 406)
2(407 408)
2(409 410)
2(411 412)
2(413 209)
2(414 415)
2(416 417)
2(418 419)
2(420 421)
2(422 423)
2(424 210)
2(425 426)
2(427 211)
2(428 429)
2(430 431)
2(432 433)
2(434 435)
2(436 437)
2(438 212)
2(439 440)
2(441 213)
2(442 443)
2(444 445)
2(446 447)
2(448 214)
2(449 450)
2(451 215)
2(452 453)
2(454 455)
2(456 457)
2(458 216)
2(459 460)
2(461 462)
2(463 464)
2(465 466)
2(467 468)
2(469 217)
2(470 471)
2(472 473)
2(474 475)
2(476 477)
2(478 479)
2(480 218)
2(481 482)
2(483 219)
2(484 485)
2(486 487)
2(488 489)
2(490 491)
2(492 493)
2(494 220)
2(495 496)
2(497 221)
2(498 499)
2(500 501)
2(502 503)
2(504 222)
2(505 506)
2(507 223)
2(508 509)
2(510 511)
2(128 294)
2(294 129)
2(129 298)
2(298 130)
2(130 193)
2(131 305)
2(305 132)
2(132 309)
2(309 133)
2(133 194)
2(134 195)
2(135 319)
2(319 136)
2(136 323)
2(323 137)
2(137 196)
2(138 197)
2(139 333)
2(333 140)
2(140 198)
2(141 199)
2(142 343)
2(343 143)
2(143 200)
2(144 350)
2(350 145)
2(145 354)
2(354 146)
2(146 201)
2(147 361)
2(361 148)
2(148 365)
2(365 149)
2(149 202)
2(150 203)
2(151 375)
2(375 152)
2(152 379)