/*--------------------------------*- C++ -*----------------------------------*\
| =========                 |                                                 |
| \\      /  F ield         | OpenFOAM: The Open Source CFD Toolbox           |
|  \\    /   O peration     | Version:  2406                                  |
|   \\  /    A nd           | Website:  www.openfoam.com                      |
|    \\/     M anipulation  |                                                 |
\*---------------------------------------------------------------------------*/
FoamFile
{
    version     2.0;
    format      ascii;
    arch        "LSB;label=32;scalar=64";
    class       extendedFeatureEdgeMesh;
    location    "constant/extendedFeatureEdgeMesh";
    object      impeller.extendedFeatureEdgeMesh;
}
// * * * * * * * * * * * * * * * * * * * * * * * * * * * * * * * * * * * * * //

// points

463
(
(-0.054504 0.025087 0.462937)
(-0.025087 0.054504 0.567063)
(0.043115 0.0417271 0.576825)
(0.054504 0.025087 0.567063)
(0.025087 0.054504 0.462937)
(-0.043115 0.0417271 0.453175)
(0.0417271 -0.043115 0.576825)
(0.025087 -0.054504 0.567063)
(0.054504 -0.025087 0.462937)
(0.0417271 0.043115 0.453175)
(-0.043115 -0.0417271 0.576825)
(-0.054504 -0.025087 0.567063)
(-0.025087 -0.054504 0.462937)
(0.043115 -0.0417271 0.453175)
(-0.0417271 0.043115 0.576825)
(-0.0417271 -0.043115 0.453175)
(-0.041129 -0.010709 2.31)
(-0.042347 -0.003604 2.31)
(-0.0387271 -0.017506 2.31)
(-0.035212 -0.023799 2.31)
(-0.030683 -0.029407 2.31)
(-0.025272 -0.03417 2.31)
(-0.019134 -0.037949 2.31)
(-0.0124449 -0.040637 2.31)
(-0.00539795 -0.042156 2.31)
(0.00180396 -0.042462 2.31)
(0.00895398 -0.041546 2.31)
(0.0158459 -0.0394351 2.31)
(0.022283 -0.0361899 2.31)
(0.028079 -0.0319041 2.31)
(0.033067 -0.026699 2.31)
(0.037103 -0.0207271 2.31)
(0.040072 -0.014158 2.31)
(0.041889 -0.00718201 2.31)
(0.0425 0 2.31)
(0.041889 0.00718201 2.31)
(0.040072 0.014158 2.31)
(0.037103 0.0207271 2.31)
(0.033067 0.026699 2.31)
(0.028079 0.0319041 2.31)
(0.022283 0.0361899 2.31)
(0.0158459 0.0394351 2.31)
(0.00895398 0.041546 2.31)
(0.00180396 0.042462 2.31)
(-0.00539795 0.042156 2.31)
(-0.0124449 0.040637 2.31)
(-0.019134 0.037949 2.31)
(-0.025272 0.03417 2.31)
(-0.030683 0.029407 2.31)
(-0.035212 0.023799 2.31)
(-0.0387271 0.017506 2.31)
(-0.041129 0.010709 2.31)
(-0.042347 0.003604 2.31)
(0.027012 0.053576 0.585)
(0.035678 0.04824 0.585)
(0.017569 0.05737 0.585)
(0.00762097 0.059514 0.585)
(-0.002547 0.059946 0.585)
(-0.012641 0.058653 0.585)
(-0.022371 0.055673 0.585)
(-0.031458 0.051092 0.585)
(0.043317 0.041516 0.585)
(0.0497111 0.033599 0.585)
(0.054674 0.024714 0.585)
(0.027012 0.053576 0.445)
(0.017569 0.05737 0.445)
(0.00762097 0.059514 0.445)
(-0.002547 0.059946 0.445)
(-0.012641 0.058653 0.445)
(-0.022371 0.055673 0.445)
(-0.031458 0.051092 0.445)
(-0.039641 0.04504 0.445)
(-0.046682 0.037693 0.445)
(-0.052381 0.029262 0.445)
(0.0497111 -0.033599 0.585)
(0.043317 -0.041516 0.585)
(0.054674 -0.024714 0.585)
(0.058064 -0.015119 0.585)
(0.0597841 -0.00508801 0.585)
(0.0597841 0.00508801 0.585)
(0.058064 0.015119 0.585)
(0.035678 -0.04824 0.585)
(0.027012 -0.053576 0.585)
(0.0497111 -0.033599 0.445)
(0.054674 -0.024714 0.445)
(0.058064 -0.015119 0.445)
(0.0597841 -0.00508801 0.445)
(0.0597841 0.00508801 0.445)
(0.058064 0.015119 0.445)
(0.054674 0.024714 0.445)
(0.0497111 0.033599 0.445)
(0.043317 0.041516 0.445)
(0.035678 0.04824 0.445)
(0.017569 -0.05737 0.585)
(0.00762097 -0.059514 0.585)
(-0.002547 -0.059946 0.585)
(-0.012641 -0.058653 0.585)
(-0.022371 -0.055673 0.585)
(-0.031458 -0.051092 0.585)
(-0.039641 -0.04504 0.585)
(-0.046682 -0.037693 0.585)
(-0.052381 -0.029262 0.585)
(0.027012 -0.053576 0.445)
(0.035678 -0.04824 0.445)
(0.017569 -0.05737 0.445)
(0.00762097 -0.059514 0.445)
(-0.002547 -0.059946 0.445)
(-0.012641 -0.058653 0.445)
(-0.022371 -0.055673 0.445)
(-0.031458 -0.051092 0.445)
(0.043317 -0.041516 0.445)
(-0.052381 0.029262 0.585)
(-0.046682 0.037693 0.585)
(-0.056573 0.019988 0.585)
(-0.059137 0.01014 0.585)
(-0.06 0 0.585)
(-0.059137 -0.01014 0.585)
(-0.056573 -0.019988 0.585)
(-0.039641 0.04504 0.585)
(-0.052381 -0.029262 0.445)
(-0.046682 -0.037693 0.445)
(-0.056573 -0.019988 0.445)
(-0.059137 -0.01014 0.445)
(-0.06 0 0.445)
(-0.059137 0.01014 0.445)
(-0.056573 0.019988 0.445)
(-0.039641 -0.04504 0.445)
(-0.041488 0.35 0.478122)
(0.030099 0.35 0.56164)
(0.041488 0.35 0.551878)
(-0.030099 0.35 0.46836)
(-0.054504 0.33 0.462937)
(-0.043115 0.33 0.453175)
(0.043115 0.33 0.576825)
(0.032135 0.349754 0.564016)
(-0.054344 0.333129 0.463124)
(-0.043524 0.349754 0.475746)
(-0.04551 0.349021 0.473429)
(-0.047397 0.34782 0.471228)
(-0.0520179 0.341756 0.465837)
(-0.053085 0.33908 0.464592)
(-0.0538669 0.33618 0.46368)
(0.042955 0.333129 0.576638)
(0.042478 0.33618 0.576082)
(0.041696 0.33908 0.57517)
(-0.0491379 0.34618 0.469196)
(-0.050692 0.344142 0.467384)
(0.040629 0.341756 0.573925)
(0.039303 0.344142 0.572378)
(0.03775 0.34618 0.570566)
(0.0360081 0.34782 0.568534)
(0.034121 0.349021 0.566333)
(0.054504 0.33 0.567063)
(0.054344 0.333129 0.566876)
(-0.042478 0.33618 0.453918)
(-0.041696 0.33908 0.45483)
(0.0520179 0.341756 0.564163)
(0.053085 0.33908 0.565408)
(0.0538669 0.33618 0.56632)
(-0.0360081 0.34782 0.461466)
(-0.034121 0.349021 0.463668)
(-0.032135 0.349754 0.465984)
(-0.042955 0.333129 0.453362)
(0.043524 0.349754 0.554254)
(0.04551 0.349021 0.556571)
(0.047397 0.34782 0.558772)
(0.0491379 0.34618 0.560804)
(0.050692 0.344142 0.562616)
(-0.040629 0.341756 0.456075)
(-0.039303 0.344142 0.457622)
(-0.03775 0.34618 0.459434)
(0.35 0.041488 0.478122)
(0.35 -0.030099 0.56164)
(0.35 -0.041488 0.551878)
(0.35 0.030099 0.46836)
(0.33 0.043115 0.453175)
(0.33 0.054504 0.462937)
(0.33 -0.043115 0.576825)
(0.33618 0.0538669 0.46368)
(0.333129 0.054344 0.463124)
(0.344142 0.050692 0.467384)
(0.341756 0.0520179 0.465837)
(0.33908 0.053085 0.464592)
(0.34782 0.047397 0.471228)
(0.34618 0.0491379 0.469196)
(0.349021 0.04551 0.473429)
(0.349754 0.043524 0.475746)
(0.333129 -0.042955 0.576638)
(0.33618 -0.042478 0.576082)
(0.33908 -0.041696 0.57517)
(0.34782 -0.0360081 0.568534)
(0.349021 -0.034121 0.566333)
(0.34618 -0.03775 0.570566)
(0.344142 -0.039303 0.572378)
(0.341756 -0.040629 0.573925)
(0.349754 -0.032135 0.564016)
(0.33 -0.054504 0.567063)
(0.34618 -0.0491379 0.560804)
(0.344142 -0.050692 0.562616)
(0.341756 -0.0520179 0.564163)
(0.333129 -0.054344 0.566876)
(0.349754 0.032135 0.465984)
(0.33908 -0.053085 0.565408)
(0.33618 -0.0538669 0.56632)
(0.349754 -0.043524 0.554254)
(0.349021 -0.04551 0.556571)
(0.34782 -0.047397 0.558772)
(0.333129 0.042955 0.453362)
(0.33618 0.042478 0.453918)
(0.33908 0.041696 0.45483)
(0.341756 0.040629 0.456075)
(0.344142 0.039303 0.457622)
(0.34618 0.03775 0.459434)
(0.34782 0.0360081 0.461466)
(0.349021 0.034121 0.463668)
(0.041488 -0.35 0.478122)
(-0.030099 -0.35 0.56164)
(-0.041488 -0.35 0.551878)
(0.030099 -0.35 0.46836)
(0.054504 -0.33 0.462937)
(0.043115 -0.33 0.453175)
(-0.043115 -0.33 0.576825)
(0.054344 -0.333129 0.463124)
(0.043524 -0.349754 0.475746)
(-0.042955 -0.333129 0.576638)
(-0.042478 -0.33618 0.576082)
(-0.041696 -0.33908 0.57517)
(-0.040629 -0.341756 0.573925)
(-0.039303 -0.344142 0.572378)
(-0.03775 -0.34618 0.570566)
(-0.0360081 -0.34782 0.568534)
(0.04551 -0.349021 0.473429)
(0.047397 -0.34782 0.471228)
(0.0491379 -0.34618 0.469196)
(0.053085 -0.33908 0.464592)
(0.0538669 -0.33618 0.46368)
(-0.034121 -0.349021 0.566333)
(-0.032135 -0.349754 0.564016)
(0.050692 -0.344142 0.467384)
(0.0520179 -0.341756 0.465837)
(-0.054504 -0.33 0.567063)
(-0.043524 -0.349754 0.554254)
(-0.04551 -0.349021 0.556571)
(-0.047397 -0.34782 0.558772)
(-0.0491379 -0.34618 0.560804)
(-0.050692 -0.344142 0.562616)
(-0.0520179 -0.341756 0.564163)
(-0.053085 -0.33908 0.565408)
(-0.0538669 -0.33618 0.56632)
(-0.054344 -0.333129 0.566876)
(0.040629 -0.341756 0.456075)
(0.039303 -0.344142 0.457622)
(0.041696 -0.33908 0.45483)
(0.0360081 -0.34782 0.461466)
(0.034121 -0.349021 0.463668)
(0.042478 -0.33618 0.453918)
(0.03775 -0.34618 0.459434)
(0.042955 -0.333129 0.453362)
(0.032135 -0.349754 0.465984)
(-0.35 -0.041488 0.478122)
(-0.35 0.030099 0.56164)
(-0.35 0.041488 0.551878)
(-0.35 -0.030099 0.46836)
(-0.33 -0.054504 0.462937)
(-0.33 -0.043115 0.453175)
(-0.33 0.043115 0.576825)
(-0.33618 -0.0538669 0.46368)
(-0.333129 -0.054344 0.463124)
(-0.349754 0.032135 0.564016)
(-0.349754 -0.043524 0.475746)
(-0.349021 -0.04551 0.473429)
(-0.333129 0.042955 0.576638)
(-0.33618 0.042478 0.576082)
(-0.33908 0.041696 0.57517)
(-0.34782 -0.047397 0.471228)
(-0.34618 -0.0491379 0.469196)
(-0.344142 -0.050692 0.467384)
(-0.341756 -0.0520179 0.465837)
(-0.33908 -0.053085 0.464592)
(-0.341756 0.040629 0.573925)
(-0.344142 0.039303 0.572378)
(-0.34618 0.03775 0.570566)
(-0.34782 0.0360081 0.568534)
(-0.349021 0.034121 0.566333)
(-0.33 0.054504 0.567063)
(-0.34618 -0.03775 0.459434)
(-0.34782 -0.0360081 0.461466)
(-0.333129 -0.042955 0.453362)
(-0.33618 -0.042478 0.453918)
(-0.33908 -0.041696 0.45483)
(-0.349021 -0.034121 0.463668)
(-0.349754 -0.032135 0.465984)
(-0.349754 0.043524 0.554254)
(-0.341756 -0.040629 0.456075)
(-0.344142 -0.039303 0.457622)
(-0.33908 0.053085 0.565408)
(-0.33618 0.0538669 0.56632)
(-0.333129 0.054344 0.566876)
(-0.349021 0.04551 0.556571)
(-0.34782 0.047397 0.558772)
(-0.34618 0.0491379 0.560804)
(-0.344142 0.050692 0.562616)
(-0.341756 0.0520179 0.564163)
(-0.042347 0.003604 0.585)
(-0.0425 0 0.585)
(-0.042347 -0.003604 0.585)
(-0.041129 -0.010709 0.585)
(-0.0387271 -0.017506 0.585)
(-0.035212 -0.023799 0.585)
(-0.030683 -0.029407 0.585)
(-0.025272 -0.03417 0.585)
(-0.019134 -0.037949 0.585)
(-0.0124449 -0.040637 0.585)
(-0.00539795 -0.042156 0.585)
(0.00180396 -0.042462 0.585)
(0.00895398 -0.041546 0.585)
(0.0158459 -0.0394351 0.585)
(0.022283 -0.0361899 0.585)
(0.028079 -0.0319041 0.585)
(0.033067 -0.026699 0.585)
(0.037103 -0.0207271 0.585)
(0.040072 -0.014158 0.585)
(0.041889 -0.00718201 0.585)
(0.0425 0 0.585)
(0.041889 0.00718201 0.585)
(0.040072 0.014158 0.585)
(0.037103 0.0207271 0.585)
(0.033067 0.026699 0.585)
(0.028079 0.0319041 0.585)
(0.022283 0.0361899 0.585)
(0.0158459 0.0394351 0.585)
(0.00895398 0.041546 0.585)
(0.00180396 0.042462 0.585)
(-0.00539795 0.042156 0.585)
(-0.0124449 0.040637 0.585)
(-0.019134 0.037949 0.585)
(-0.025272 0.03417 0.585)
(-0.030683 0.029407 0.585)
(-0.035212 0.023799 0.585)
(-0.0387271 0.017506 0.585)
(-0.041129 0.010709 0.585)
(-0.052381 0.029262 0.465414)
(-0.056573 0.019988 0.526795)
(-0.052381 0.029262 0.537614)
(-0.0497111 0.033599 0.468529)
(-0.046682 0.037693 0.472062)
(-0.046682 0.037693 0.547451)
(-0.039641 0.04504 0.556023)
(-0.039641 0.04504 0.480277)
(-0.031458 0.051092 0.489823)
(-0.035678 0.04824 0.559755)
(-0.031458 0.051092 0.563083)
(-0.022371 0.055673 0.500424)
(0.027012 0.053576 0.558039)
(0.017569 0.05737 0.547022)
(0.00762097 0.059514 0.535416)
(-0.002547 0.059946 0.523554)
(-0.012641 0.058653 0.511777)
(0.043317 0.041516 0.576652)
(0.035678 0.04824 0.568149)
(0.052281 0.0294399 0.56447)
(0.0497111 0.033599 0.561471)
(0.052281 0.0294399 0.568969)
(0.0497111 0.033599 0.571172)
(0.054674 0.024714 0.497691)
(0.0497111 0.033599 0.487326)
(0.043317 0.041516 0.478089)
(0.043317 0.041516 0.554013)
(0.035678 0.04824 0.470245)
(0.035678 0.04824 0.5451)
(0.027012 0.053576 0.53499)
(0.031458 0.051092 0.466917)
(0.027048 0.053557 0.464041)
(0.017569 0.05737 0.523973)
(0.00762097 0.059514 0.512367)
(-0.002547 0.059946 0.500505)
(-0.012641 0.058653 0.488728)
(-0.022371 0.055673 0.477376)
(-0.031458 0.051092 0.466774)
(-0.039641 0.04504 0.457228)
(-0.0497111 0.033599 0.458828)
(-0.046682 0.037693 0.456233)
(0.043317 -0.041516 0.57496)
(0.0497111 -0.033599 0.565723)
(0.054674 -0.024714 0.555357)
(0.058064 -0.015119 0.544163)
(0.0597841 -0.00508801 0.532461)
(0.0597841 0.00508801 0.520588)
(0.058064 0.015119 0.508886)
(0.035678 -0.04824 0.572432)
(0.031458 -0.051092 0.569988)
(0.027012 -0.053576 0.567859)
(0.027048 -0.053557 0.565959)
(0.017569 -0.05737 0.506027)
(0.027012 -0.053576 0.49501)
(0.031458 -0.051092 0.563083)
(0.035678 -0.04824 0.559755)
(0.035678 -0.04824 0.4849)
(0.043317 -0.041516 0.475987)
(0.043317 -0.041516 0.551911)
(0.0497111 -0.033599 0.468529)
(0.0497111 -0.033599 0.542674)
(0.054674 -0.024714 0.532309)
(0.052281 -0.0294399 0.46553)
(0.052281 -0.0294399 0.461031)
(0.058064 -0.015119 0.521114)
(0.0597841 -0.00508801 0.509412)
(0.0597841 0.00508801 0.497539)
(0.058064 0.015119 0.485837)
(0.054674 0.024714 0.474642)
(0.0497111 0.033599 0.464277)
(0.043317 0.041516 0.45504)
(0.027012 0.053576 0.462141)
(0.031458 0.051092 0.460012)
(0.035678 0.04824 0.457568)
(0.00762097 -0.059514 0.517633)
(-0.002547 -0.059946 0.529495)
(-0.012641 -0.058653 0.541272)
(-0.022371 -0.055673 0.552624)
(-0.031458 -0.051092 0.563226)
(-0.039641 -0.04504 0.572772)
(-0.0497111 -0.033599 0.571172)
(-0.046682 -0.037693 0.573768)
(-0.052381 -0.029262 0.564586)
(-0.056573 -0.019988 0.503205)
(-0.052381 -0.029262 0.492386)
(-0.0497111 -0.033599 0.561471)
(-0.046682 -0.037693 0.557938)
(-0.046682 -0.037693 0.482549)
(-0.039641 -0.04504 0.473977)
(-0.039641 -0.04504 0.549723)
(-0.031458 -0.051092 0.540177)
(-0.035678 -0.04824 0.470245)
(-0.031458 -0.051092 0.466917)
(-0.022371 -0.055673 0.529576)
(0.027012 -0.053576 0.471961)
(0.017569 -0.05737 0.482978)
(0.00762097 -0.059514 0.494584)
(-0.002547 -0.059946 0.506446)
(-0.012641 -0.058653 0.518223)
(0.0497111 -0.033599 0.458828)
(0.043317 -0.041516 0.453348)
(0.035678 -0.04824 0.461851)
(-0.052381 0.029262 0.560663)
(-0.056573 0.019988 0.549844)
(-0.059137 0.01014 0.538354)
(-0.06 0 0.526524)
(-0.059137 -0.01014 0.514694)
(-0.052381 -0.029262 0.568883)
(-0.046682 0.037693 0.5705)
(-0.031458 0.051092 0.569988)
(-0.035678 0.04824 0.572432)
(-0.039665 0.0450179 0.575193)
(-0.052381 -0.029262 0.469337)
(-0.056573 -0.019988 0.480156)
(-0.059137 -0.01014 0.491646)
(-0.06 0 0.503476)
(-0.059137 0.01014 0.515306)
(-0.052381 0.029262 0.461117)
(-0.046682 -0.037693 0.4595)
(-0.031458 -0.051092 0.460012)
(-0.035678 -0.04824 0.457568)
(-0.039665 -0.045019 0.454806)
)

// edges

471
(
(16 17)
(18 16)
(19 18)
(20 19)
(21 20)
(22 21)
(23 22)
(24 23)
(25 24)
(26 25)
(27 26)
(28 27)
(29 28)
(30 29)
(31 30)
(32 31)
(33 32)
(34 33)
(35 34)
(36 35)
(37 36)
(38 37)
(39 38)
(40 39)
(41 40)
(42 41)
(43 42)
(44 43)
(45 44)
(46 45)
(47 46)
(48 47)
(49 48)
(50 49)
(51 50)
(52 51)
(17 52)
(53 54)
(55 53)
(56 55)
(57 56)
(58 57)
(59 58)
(60 59)
(61 62)
(54 61)
(62 63)
(64 65)
(65 66)
(66 67)
(67 68)
(68 69)
(69 70)
(70 71)
(72 73)
(71 72)
(74 75)
(76 74)
(77 76)
(78 77)
(79 78)
(80 79)
(63 80)
(75 81)
(81 82)
(83 84)
(84 85)
(85 86)
(86 87)
(87 88)
(88 89)
(89 90)
(90 91)
(92 64)
(91 92)
(82 93)
(93 94)
(94 95)
(95 96)
(96 97)
(97 98)
(98 99)
(100 101)
(99 100)
(102 103)
(104 102)
(105 104)
(106 105)
(107 106)
(108 107)
(109 108)
(110 83)
(103 110)
(111 112)
(113 111)
(114 113)
(115 114)
(116 115)
(117 116)
(101 117)
(112 118)
(118 60)
(119 120)
(121 119)
(122 121)
(123 122)
(124 123)
(125 124)
(73 125)
(120 126)
(126 109)
(127 128)
(129 130)
(0 131)
(132 5)
(2 133)
(134 128)
(135 131)
(127 136)
(136 137)
(137 138)
(139 140)
(140 141)
(141 135)
(133 142)
(142 143)
(143 144)
(138 145)
(145 146)
(146 139)
(144 147)
(147 148)
(148 149)
(149 150)
(150 151)
(151 134)
(3 152)
(153 152)
(154 155)
(156 157)
(157 158)
(158 153)
(159 160)
(160 161)
(161 130)
(132 162)
(162 154)
(129 163)
(163 164)
(164 165)
(165 166)
(166 167)
(167 156)
(155 168)
(168 169)
(169 170)
(170 159)
(171 172)
(173 174)
(175 9)
(4 176)
(6 177)
(178 179)
(180 181)
(181 182)
(182 178)
(183 184)
(184 180)
(179 176)
(185 183)
(186 185)
(171 186)
(177 187)
(187 188)
(188 189)
(190 191)
(192 190)
(193 192)
(189 194)
(194 193)
(195 172)
(191 195)
(7 196)
(197 198)
(198 199)
(200 196)
(201 174)
(199 202)
(202 203)
(203 200)
(173 204)
(204 205)
(205 206)
(206 197)
(207 208)
(208 209)
(209 210)
(210 211)
(211 212)
(212 213)
(213 214)
(214 201)
(175 207)
(215 216)
(217 218)
(8 219)
(220 13)
(10 221)
(222 219)
(215 223)
(224 225)
(225 226)
(226 227)
(227 228)
(228 229)
(229 230)
(221 224)
(223 231)
(231 232)
(232 233)
(234 235)
(235 222)
(230 236)
(236 237)
(237 216)
(233 238)
(238 239)
(239 234)
(11 240)
(217 241)
(241 242)
(242 243)
(243 244)
(244 245)
(245 246)
(246 247)
(247 248)
(248 249)
(249 240)
(250 251)
(252 250)
(253 254)
(255 252)
(251 256)
(256 253)
(220 257)
(257 255)
(258 218)
(254 258)
(259 260)
(261 262)
(12 263)
(264 15)
(14 265)
(266 267)
(267 263)
(268 260)
(259 269)
(269 270)
(271 272)
(272 273)
(270 274)
(274 275)
(275 276)
(276 277)
(277 278)
(278 266)
(265 271)
(273 279)
(279 280)
(280 281)
(281 282)
(282 283)
(283 268)
(1 284)
(285 286)
(287 288)
(288 289)
(286 290)
(290 291)
(291 262)
(261 292)
(264 287)
(289 293)
(293 294)
(294 285)
(295 296)
(296 297)
(297 284)
(292 298)
(298 299)
(299 300)
(300 301)
(301 302)
(302 295)
(303 304)
(304 305)
(305 306)
(306 307)
(307 308)
(308 309)
(309 310)
(310 311)
(311 312)
(312 313)
(313 314)
(314 315)
(315 316)
(316 317)
(317 318)
(318 319)
(319 320)
(320 321)
(321 322)
(322 323)
(323 324)
(324 325)
(325 326)
(326 327)
(327 328)
(328 329)
(329 330)
(330 331)
(331 332)
(332 333)
(333 334)
(334 335)
(335 336)
(336 337)
(337 338)
(338 339)
(339 340)
(340 303)
(341 0)
(342 343)
(344 341)
(345 344)
(343 346)
(346 347)
(348 345)
(349 348)
(347 350)
(350 351)
(352 349)
(351 1)
(353 354)
(354 355)
(355 356)
(356 357)
(357 352)
(358 2)
(2 359)
(359 353)
(360 3)
(361 360)
(362 363)
(363 358)
(364 365)
(365 366)
(367 361)
(366 368)
(369 367)
(370 369)
(368 371)
(371 372)
(373 370)
(372 4)
(374 373)
(375 374)
(376 375)
(377 376)
(378 377)
(379 378)
(380 381)
(381 5)
(5 379)
(6 382)
(382 383)
(383 384)
(384 385)
(385 386)
(386 387)
(387 388)
(388 364)
(3 362)
(389 6)
(390 389)
(391 390)
(392 7)
(393 394)
(395 392)
(396 395)
(394 397)
(397 398)
(399 396)
(398 400)
(401 399)
(402 401)
(400 403)
(403 8)
(8 404)
(405 402)
(406 405)
(407 406)
(408 407)
(409 408)
(410 409)
(411 410)
(4 412)
(412 413)
(413 414)
(414 9)
(9 411)
(7 391)
(415 393)
(416 415)
(417 416)
(418 417)
(419 418)
(420 419)
(421 422)
(422 10)
(10 420)
(423 11)
(424 425)
(426 423)
(427 426)
(425 428)
(428 429)
(430 427)
(431 430)
(429 432)
(432 433)
(434 431)
(433 12)
(435 436)
(436 437)
(437 438)
(438 439)
(439 434)
(404 440)
(440 441)
(441 13)
(13 442)
(442 435)
(443 444)
(444 445)
(445 446)
(446 447)
(447 424)
(11 448)
(448 421)
(14 449)
(449 443)
(1 450)
(450 451)
(451 452)
(452 14)
(453 454)
(454 455)
(455 456)
(456 457)
(457 342)
(0 458)
(458 380)
(15 459)
(459 453)
(12 460)
(460 461)
(461 462)
(462 15)
)

// concaveStart mixedStart nonFeatureStart
0 0 16
// internalStart flatStart openStart multipleStart
295 471 471 471
// normals

915
(
(-0.985622 -0.168964 0)
(-0 0 1)
(-0.942861 -0.333185 0)
(0 0 1)
(-0.873037 -0.487655 0)
(0 0 1)
(-0.777978 -0.628292 0)
(-0 0 1)
(-0.660731 -0.750623 0)
(0 0 1)
(-0.524275 -0.851549 0)
(0 0 1)
(-0.372868 -0.927884 0)
(-0 0 1)
(-0.210714 -0.977548 0)
(0 0 1)
(-0.0424503 -0.999099 0)
(0 0 1)
(0.127073 -0.991893 0)
(0 -0 1)
(0.292857 -0.956156 0)
(0 0 1)
(0.450169 -0.892944 0)
(0 0 1)
(0.594552 -0.804057 0)
(0 -0 1)
(0.722004 -0.691889 0)
(0 0 1)
(0.828529 -0.559946 0)
(0 0 1)
(0.91125 -0.411853 0)
(0 -0 1)
(0.967713 -0.252055 0)
(0 0 1)
(0.996401 -0.0847674 0)
(-0 0 1)
(0.996401 0.0847674 0)
(0 0 1)
(0.967713 0.252055 0)
(0 0 1)
(0.91125 0.411853 0)
(0 0 1)
(0.828529 0.559946 0)
(0 0 1)
(0.722004 0.691889 0)
(0 0 1)
(0.594552 0.804057 0)
(0 0 1)
(0.450169 0.892944 0)
(0 0 1)
(0.292857 0.956156 0)
(0 0 1)
(0.127073 0.991893 0)
(0 0 1)
(-0.0424503 0.999099 0)
(0 -0 1)
(-0.210714 0.977548 0)
(0 0 1)
(-0.372868 0.927884 0)
(0 0 1)
(-0.524275 0.851549 0)
(0 0 1)
(-0.660731 0.750623 0)
(0 0 1)
(-0.777978 0.628292 0)
(0 0 1)
(-0.873037 0.487655 0)
(0 0 1)
(-0.942861 0.333185 0)
(0 0 1)
(-0.985622 0.168964 0)
(0 0 1)
(-1 -0 -0)
(0 0 1)
(0.524317 0.851523 0)
(0 0 1)
(0.372813 0.927906 0)
(0 0 1)
(0.210683 0.977554 0)
(0 0 1)
(0.042448 0.999099 0)
(0 0 1)
(-0.127058 0.991895 0)
(-0 0 1)
(-0.292843 0.956161 0)
(-0 0 1)
(-0.450137 0.892904 0.0099664)
(-0 0 1)
(0.77796 0.628313 0)
(0 0 1)
(0.660718 0.750628 0.0030573)
(0 0 1)
(0.872959 0.487609 0.0134366)
(0 0 1)
(0.372801 0.927877 -0.00799614)
(0 0 -1)
(0.210683 0.977554 0)
(0 -0 -1)
(0.042448 0.999099 0)
(0 0 -1)
(-0.127058 0.991895 0)
(0 0 -1)
(-0.292843 0.956161 0)
(0 0 -1)
(-0.450159 0.892948 0)
(0 0 -1)
(-0.594626 0.804003 0)
(0 0 -1)
(-0.828379 0.559949 -0.0156791)
(0 0 -1)
(-0.721982 0.691912 0)
(0 0 -1)
(0.77796 -0.628313 0)
(0 0 1)
(0.873038 -0.487653 0)
(0 0 1)
(0.942881 -0.333128 0)
(0 0 1)
(0.985614 -0.169012 0)
(0 -0 1)
(1 -0 0)
(-0 0 1)
(0.985614 0.169012 0)
(-0 0 1)
(0.942881 0.333128 0)
(0 0 1)
(0.660721 -0.750632 0)
(0 0 1)
(0.524263 -0.851435 0.0143823)
(0 0 1)
(0.872959 -0.487609 -0.0134365)
(0 0 -1)
(0.942881 -0.333128 0)
(0 0 -1)
(0.985614 -0.169012 0)
(-0 0 -1)
(1 0 0)
(0 0 -1)
(0.985614 0.169012 0)
(0 0 -1)
(0.942881 0.333128 0)
(0 -0 -1)
(0.873038 0.487653 0)
(0 0 -1)
(0.77796 0.628313 0)
(0 0 -1)
(0.524263 0.851435 -0.0143823)
(0 0 -1)
(0.660721 0.750632 -0)
(0 -0 -1)
(0.372801 -0.927877 0.00799614)
(0 0 1)
(0.210683 -0.977554 0)
(0 0 1)
(0.042448 -0.999099 0)
(0 -0 1)
(-0.127058 -0.991895 0)
(0 -0 1)
(-0.292843 -0.956161 0)
(0 -0 1)
(-0.450159 -0.892948 0)
(0 -0 1)
(-0.594626 -0.804003 0)
(0 -0 1)
(-0.828379 -0.559949 0.0156791)
(0 -0 1)
(-0.721982 -0.691912 -0)
(0 -0 1)
(0.524317 -0.851523 0)
(0 0 -1)
(0.372813 -0.927906 0)
(-0 0 -1)
(0.210683 -0.977554 0)
(0 0 -1)
(0.042448 -0.999099 0)
(0 -0 -1)
(-0.127058 -0.991895 0)
(0 0 -1)
(-0.292843 -0.956161 0)
(0 0 -1)
(-0.450137 -0.892904 -0.0099664)
(0 0 -1)
(0.77796 -0.628313 0)
(-0 0 -1)
(0.660718 -0.750628 -0.00305728)
(0 0 -1)
(-0.82848 0.560018 0)
(-0 0 1)
(-0.911233 0.411892 0)
(-0 0 1)
(-0.967738 0.251958 0)
(0 0 1)
(-0.996398 0.0848016 0)
(0 0 1)
(-0.996398 -0.0848016 0)
(0 -0 1)
(-0.967738 -0.251958 0)
(0 -0 1)
(-0.911167 -0.411862 0.0119798)
(0 -0 1)
(-0.721818 0.691755 0.0213037)
(-0 0 1)
(-0.594538 0.803884 0.0172082)
(-0 0 1)
(-0.82848 -0.560018 0)
(0 0 -1)
(-0.911233 -0.411892 0)
(0 0 -1)
(-0.967738 -0.251958 0)
(0 0 -1)
(-0.996398 -0.0848016 0)
(-0 0 -1)
(-0.996398 0.0848016 0)
(0 0 -1)
(-0.967738 0.251958 0)
(0 0 -1)
(-0.911167 0.411862 -0.0119798)
(0 0 -1)
(-0.721818 -0.691755 -0.0213036)
(0 0 -1)
(-0.594538 -0.803884 -0.0172082)
(0 0 -1)
(-0 1 0)
(-0.759256 2.11075e-06 0.650792)
(0 1 0)
(0.759256 -1.06493e-06 -0.650792)
(-0.65085 0 -0.759206)
(-0.759277 0 0.650767)
(-0.650791 -0 -0.759257)
(0.759256 0 -0.650792)
(-0.75924 0 0.650811)
(0.650793 0 0.759255)
(-0.759341 1.62074e-05 0.650693)
(0.0510056 0.996924 0.0595062)
(-0.759402 -5.34379e-05 0.650622)
(-0.648787 0.0784147 -0.756919)
(-0.759344 -2.01406e-05 0.650689)
(-0.0510051 0.996924 -0.0595058)
(-0.759258 1.38937e-06 0.650789)
(-0.151989 0.972343 -0.177338)
(-0.759188 2.01451e-05 0.650871)
(-0.249066 0.923868 -0.290575)
(-0.759266 -2.32316e-06 0.650781)
(-0.554902 0.522472 -0.647385)
(-0.75921 1.66845e-05 0.650846)
(-0.601249 0.382706 -0.701452)
(-0.759073 6.47895e-05 0.651006)
(-0.632804 0.23349 -0.738269)
(-0.759432 5.60155e-05 0.650587)
(0.648787 0.0784219 0.756919)
(-0.759092 -4.77594e-05 0.650984)
(0.632809 0.233471 0.738271)
(-0.759178 -2.20162e-05 0.650883)
(0.601242 0.382723 0.701449)
(-0.759393 -3.80468e-05 0.650632)
(-0.340101 0.852598 -0.396747)
(-0.759086 5.41219e-05 0.650991)
(-0.422558 0.760535 -0.492983)
(-0.759278 -6.26164e-06 0.650767)
(-0.494906 0.649378 -0.577387)
(-0.759281 7.65561e-06 0.650763)
(0.554912 0.522452 0.647392)
(-0.759263 2.59316e-06 0.650784)
(0.494895 0.649394 0.577378)
(-0.759279 6.67974e-06 0.650766)
(0.422653 0.760439 0.493048)
(-0.759223 -7.15632e-06 0.650831)
(0.340027 0.852652 0.396695)
(-0.759174 -1.84493e-05 0.650887)
(0.249059 0.923872 0.290569)
(-0.759258 -3.19513e-07 0.65079)
(0.151998 0.972343 0.177331)
(0.650911 -0 0.759154)
(0.759192 0 -0.650866)
(0.759399 -4.76047e-05 -0.650625)
(0.64879 0.0784076 0.756918)
(0.759169 -2.26457e-05 -0.650894)
(-0.601244 0.382717 -0.70145)
(0.759259 -1.41236e-06 -0.650789)
(0.554903 0.522466 0.647388)
(0.759206 1.43101e-05 -0.65085)
(0.601249 0.382706 0.701452)
(0.759059 5.96251e-05 -0.651022)
(0.632803 0.23349 0.73827)
(0.759306 1.11619e-05 -0.650734)
(-0.248991 0.923906 -0.290519)
(0.759123 -3.59122e-05 -0.650947)
(-0.152034 0.972329 -0.177373)
(0.759349 1.85488e-05 -0.650684)
(-0.0510047 0.996924 -0.0595055)
(0.759424 4.45485e-05 -0.650596)
(-0.648789 0.0784076 -0.756918)
(0.759093 -4.18723e-05 -0.650982)
(-0.632808 0.233478 -0.73827)
(0.759348 -1.88418e-05 -0.650684)
(0.0510046 0.996924 0.0595055)
(0.759258 7.53727e-08 -0.65079)
(0.151998 0.972343 0.177331)
(0.759191 1.52179e-05 -0.650868)
(0.249065 0.923869 0.290573)
(0.75939 -3.3103e-05 -0.650635)
(0.340104 0.852596 0.39675)
(0.759081 4.66317e-05 -0.650996)
(0.422557 0.760535 0.492983)
(0.759282 -8.13151e-06 -0.650761)
(0.494904 0.649383 0.577384)
(0.759296 8.46267e-06 -0.650746)
(-0.554908 0.522462 -0.647387)
(0.759254 -1.39326e-06 -0.650795)
(-0.494901 0.649386 -0.577383)
(0.759284 6.16919e-06 -0.650759)
(-0.422651 0.760442 -0.493046)
(0.759229 -9.94717e-06 -0.650824)
(-0.340025 0.852654 -0.396692)
(1 0 0)
(-1.34337e-06 0.759256 0.650792)
(1 0 0)
(-1.2754e-06 -0.759256 -0.650792)
(0 0.650791 -0.759257)
(-0 -0.75917 -0.650893)
(0 0.651056 -0.759029)
(-0 0.759014 0.651075)
(-0 0.759175 0.650887)
(0 -0.650793 0.759255)
(0.000179919 0.759385 0.650642)
(0.23349 0.632804 -0.738269)
(4.76659e-05 0.759319 0.650719)
(0.649378 0.494906 -0.577387)
(0.522472 0.554902 -0.647385)
(7.90872e-05 0.759308 0.650732)
(0.382706 0.601249 -0.701452)
(0.00060367 0.759649 0.650333)
(0.852598 0.340101 -0.396747)
(-0.000647562 0.758695 0.651445)
(0.760535 0.422558 -0.492983)
(-8.41451e-05 0.759148 0.650918)
(0.0784147 0.648787 -0.756919)
(1.88086e-05 0.759188 0.650872)
(0.923868 0.249066 -0.290575)
(-4.67966e-07 0.759258 0.65079)
(0.972343 0.151989 -0.177338)
(-2.73432e-05 0.759344 0.65069)
(0.996924 0.0510051 -0.0595058)
(8.47484e-05 0.759194 0.650864)
(0.0784219 -0.648787 0.756919)
(-0.000129581 0.759313 0.650725)
(0.233471 -0.632809 0.738271)
(-9.88492e-05 0.759299 0.650742)
(0.382723 -0.601242 0.701449)
(0.000392373 0.759063 0.651017)
(0.923872 -0.249059 0.290569)
(0.852652 -0.340027 0.396695)
(0.000395608 0.759062 0.651018)
(0.760439 -0.422653 0.493048)
(4.51599e-05 0.759242 0.650809)
(0.522452 -0.554912 0.647392)
(1.97502e-05 0.75925 0.650799)
(0.649394 -0.494895 0.577378)
(-0.000396322 0.759362 0.650668)
(0.996924 -0.0510056 0.0595062)
(-0.000156281 0.759282 0.650761)
(0.972343 -0.151998 0.177331)
(0 -0.65107 0.759017)
(0 -0.759014 -0.651075)
(5.10718e-05 -0.759084 -0.650993)
(0.760535 -0.422557 0.492983)
(-7.3385e-06 -0.759283 -0.650761)
(0.649383 -0.494904 0.577384)
(-4.80134e-05 -0.759396 -0.650629)
(0.0784076 -0.64879 0.756918)
(1.98569e-05 -0.759349 -0.650684)
(0.996924 0.0510047 -0.0595055)
(-3.00783e-07 -0.75926 -0.650787)
(0.522466 -0.554903 0.647388)
(1.60517e-05 -0.759209 -0.650847)
(0.382706 -0.601249 0.701452)
(6.27028e-05 -0.759067 -0.651013)
(0.23349 -0.632803 0.73827)
(-2.85197e-05 -0.759348 -0.650685)
(0.996924 -0.0510046 0.0595055)
(-4.042e-07 -0.759258 -0.65079)
(0.972343 -0.151998 0.177331)
(1.78642e-05 -0.759192 -0.650867)
(0.923869 -0.249065 0.290573)
(-3.4244e-05 -0.75939 -0.650636)
(0.852596 -0.340104 0.39675)
(-4.66195e-05 -0.759106 -0.650967)
(0.233478 0.632808 -0.73827)
(-2.5237e-05 -0.759173 -0.650889)
(0.382717 0.601244 -0.70145)
(1.17696e-05 -0.759292 -0.65075)
(0.522462 0.554908 -0.647387)
(-5.44897e-08 -0.759253 -0.650796)
(0.649386 0.494901 -0.577383)
(8.52138e-06 -0.759283 -0.650761)
(0.760442 0.422651 -0.493046)
(-6.44677e-06 -0.759227 -0.650826)
(0.852654 0.340025 -0.396692)
(1.32585e-05 -0.759305 -0.650735)
(0.923906 0.248991 -0.290519)
(-3.0084e-05 -0.759122 -0.650948)
(0.972329 0.152034 -0.177373)
(4.8062e-05 -0.759395 -0.65063)
(0.0784076 0.648789 -0.756918)
(-0 -1 0)
(0.759256 9.94564e-07 0.650792)
(0 -1 0)
(-0.759256 -2.04976e-06 -0.650792)
(0.650905 0 -0.759159)
(0.759196 0 0.650862)
(0.650791 0 -0.759257)
(-0.759238 0 -0.650813)
(0.759256 0 0.650792)
(-0.650793 0 0.759255)
(0.759413 5.21023e-05 0.650609)
(0.648787 -0.0784147 -0.756919)
(0.759344 2.5193e-05 0.650689)
(0.0510051 -0.996924 -0.0595058)
(0.759083 4.45055e-05 0.650994)
(-0.632809 -0.233471 0.738271)
(0.759176 2.07887e-05 0.650885)
(-0.601242 -0.382723 0.701449)
(0.759284 -5.47321e-06 0.65076)
(-0.554912 -0.522452 0.647392)
(0.759264 -9.45686e-07 0.650782)
(-0.494895 -0.649394 0.577378)
(0.75928 -4.78844e-06 0.650765)
(-0.422653 -0.760439 0.493048)
(0.759224 1.12353e-05 0.650829)
(-0.340027 -0.852652 0.396695)
(0.759457 -5.30166e-05 0.650558)
(-0.648787 -0.0784219 0.756919)
(0.759258 9.69605e-08 0.65079)
(0.151989 -0.972343 -0.177338)
(0.759188 -2.14102e-05 0.650871)
(0.249066 -0.923868 -0.290575)
(0.759391 4.44429e-05 0.650635)
(0.340101 -0.852598 -0.396747)
(0.759206 -1.42632e-05 0.650851)
(0.601249 -0.382706 -0.701452)
(0.759058 -5.95872e-05 0.651023)
(0.632804 -0.23349 -0.738269)
(0.759176 2.45613e-05 0.650886)
(-0.249059 -0.923872 0.290569)
(0.759259 3.23489e-06 0.650789)
(-0.151998 -0.972343 0.177331)
(0.759341 -1.66279e-05 0.650693)
(-0.0510056 -0.996924 0.0595062)
(0.759088 -5.89311e-05 0.650988)
(0.422558 -0.760535 -0.492983)
(0.759276 8.15483e-06 0.650769)
(0.494906 -0.649378 -0.577387)
(0.759264 3.69534e-06 0.650783)
(0.554902 -0.522472 -0.647385)
(-0.650856 0 0.759201)
(-0.759277 0 -0.650767)
(-0.759348 2.10723e-05 -0.650684)
(-0.0510046 -0.996924 0.0595055)
(-0.759258 -1.45349e-06 -0.650789)
(-0.151998 -0.972343 0.177331)
(-0.759192 -1.91219e-05 -0.650867)
(-0.249065 -0.923869 0.290573)
(-0.759389 3.67241e-05 -0.650637)
(-0.340104 -0.852596 0.39675)
(-0.759086 -5.41797e-05 -0.650991)
(-0.422557 -0.760535 0.492983)
(-0.759283 7.77921e-06 -0.650761)
(-0.494904 -0.649383 0.577384)
(-0.75926 3.47314e-07 -0.650788)
(-0.554903 -0.522466 0.647388)
(-0.75921 -1.67296e-05 -0.650846)
(-0.601249 -0.382706 0.701452)
(-0.759073 -6.48253e-05 -0.651006)