/*--------------------------------*- C++ -*----------------------------------*\
| =========                 |                                                 |
| \\      /  F ield         | OpenFOAM: The Open Source CFD Toolbox           |
|  \\    /   O peration     | Version:  2406                                  |
|   \\  /    A nd           | Website:  www.openfoam.com                      |
|    \\/     M anipulation  |                                                 |
\*---------------------------------------------------------------------------*/
FoamFile
{
    version     2.0;
    format      ascii;
    arch        "LSB;label=32;scalar=64";
    class       extendedFeatureEdgeMesh;
    location    "constant/extendedFeatureEdgeMesh";
    object      tank.extendedFeatureEdgeMesh;
}
// * * * * * * * * * * * * * * * * * * * * * * * * * * * * * * * * * * * * * //

// points

112
(
(1.25 0 2.32)
(1.24214 -0.139956 2.32)
(1.24214 0.139956 2.32)
(1.12621 0.542355 2.32)
(1.17985 0.412849 2.32)
(1.21866 0.278151 2.32)
(0.883884 0.883884 2.32)
(0.977289 0.779362 2.32)
(1.05841 0.66504 2.32)
(0.542355 1.12621 2.32)
(0.66504 1.05841 2.32)
(0.779362 0.977289 2.32)
(0.139956 1.24214 2.32)
(0.278151 1.21866 2.32)
(0.412849 1.17985 2.32)
(-0.278151 1.21866 2.32)
(-0.139956 1.24214 2.32)
(0 1.25 2.32)
(-0.66504 1.05841 2.32)
(-0.542355 1.12621 2.32)
(-0.412849 1.17985 2.32)
(-0.977289 0.779362 2.32)
(-0.883884 0.883884 2.32)
(-0.779362 0.977289 2.32)
(-1.17985 0.412849 2.32)
(-1.12621 0.542355 2.32)
(-1.05841 0.66504 2.32)
(-1.25 0 2.32)
(-1.24214 0.139956 2.32)
(-1.21866 0.278151 2.32)
(-1.17985 -0.412849 2.32)
(-1.21866 -0.278151 2.32)
(-1.24214 -0.139956 2.32)
(-0.977289 -0.779362 2.32)
(-1.05841 -0.66504 2.32)
(-1.12621 -0.542355 2.32)
(-0.66504 -1.05841 2.32)
(-0.779362 -0.977289 2.32)
(-0.883884 -0.883884 2.32)
(-0.278151 -1.21866 2.32)
(-0.412849 -1.17985 2.32)
(-0.542355 -1.12621 2.32)
(0.139956 -1.24214 2.32)
(0 -1.25 2.32)
(-0.139956 -1.24214 2.32)
(0.542355 -1.12621 2.32)
(0.412849 -1.17985 2.32)
(0.278151 -1.21866 2.32)
(0.883884 -0.883884 2.32)
(0.779362 -0.977289 2.32)
(0.66504 -1.05841 2.32)
(1.12621 -0.542355 2.32)
(1.05841 -0.66504 2.32)
(0.977289 -0.779362 2.32)
(1.21866 -0.278151 2.32)
(1.17985 -0.412849 2.32)
(1.25 0 0.02)
(1.24214 0.139956 0.02)
(1.24214 -0.139956 0.02)
(1.12621 -0.542355 0.02)
(1.17985 -0.412849 0.02)
(1.21866 -0.278151 0.02)
(0.883884 -0.883884 0.02)
(0.977289 -0.779362 0.02)
(1.05841 -0.66504 0.02)
(0.542355 -1.12621 0.02)
(0.66504 -1.05841 0.02)
(0.779362 -0.977289 0.02)
(0.139956 -1.24214 0.02)
(0.278151 -1.21866 0.02)
(0.412849 -1.17985 0.02)
(-0.278151 -1.21866 0.02)
(-0.139956 -1.24214 0.02)
(0 -1.25 0.02)
(-0.66504 -1.05841 0.02)
(-0.542355 -1.12621 0.02)
(-0.412849 -1.17985 0.02)
(-0.977289 -0.779362 0.02)
(-0.883884 -0.883884 0.02)
(-0.779362 -0.977289 0.02)
(-1.17985 -0.412849 0.02)
(-1.12621 -0.542355 0.02)
(-1.05841 -0.66504 0.02)
(-1.25 0 0.02)
(-1.24214 -0.139956 0.02)
(-1.21866 -0.278151 0.02)
(-1.17985 0.412849 0.02)
(-1.21866 0.278151 0.02)
(-1.24214 0.139956 0.02)
(-0.977289 0.779362 0.02)
(-1.05841 0.66504 0.02)
(-1.12621 0.542355 0.02)
(-0.66504 1.05841 0.02)
(-0.779362 0.977289 0.02)
(-0.883884 0.883884 0.02)
(-0.278151 1.21866 0.02)
(-0.412849 1.17985 0.02)
(-0.542355 1.12621 0.02)
(0.139956 1.24214 0.02)
(0 1.25 0.02)
(-0.139956 1.24214 0.02)
(0.542355 1.12621 0.02)
(0.412849 1.17985 0.02)
(0.278151 1.21866 0.02)
(0.883884 0.883884 0.02)
(0.779362 0.977289 0.02)
(0.66504 1.05841 0.02)
(1.12621 0.542355 0.02)
(1.05841 0.66504 0.02)
(0.977289 0.779362 0.02)
(1.21866 0.278151 0.02)
(1.17985 0.412849 0.02)
)

// edges

112
(
(0 1)
(2 0)
(3 4)
(4 5)
(5 2)
(6 7)
(7 8)
(8 3)
(9 10)
(10 11)
(11 6)
(12 13)
(13 14)
(14 9)
(15 16)
(16 17)
(17 12)
(18 19)
(19 20)
(20 15)
(21 22)
(22 23)
(23 18)
(24 25)
(25 26)
(26 21)
(27 28)
(28 29)
(29 24)
(30 31)
(31 32)
(32 27)
(33 34)
(34 35)
(35 30)
(36 37)
(37 38)
(38 33)
(39 40)
(40 41)
(41 36)
(42 43)
(43 44)
(44 39)
(45 46)
(46 47)
(47 42)
(48 49)
(49 50)
(50 45)
(51 52)
(52 53)
(53 48)
(1 54)
(54 55)
(55 51)
(56 57)
(58 56)
(59 60)
(60 61)
(61 58)
(62 63)
(63 64)
(64 59)
(65 66)
(66 67)
(67 62)
(68 69)
(69 70)
(70 65)
(71 72)
(72 73)
(73 68)
(74 75)
(75 76)
(76 71)
(77 78)
(78 79)
(79 74)
(80 81)
(81 82)
(82 77)
(83 84)
(84 85)
(85 80)
(86 87)
(87 88)
(88 83)
(89 90)
(90 91)
(91 86)
(92 93)
(93 94)
(94 89)
(95 96)
(96 97)
(97 92)
(98 99)
(99 100)
(100 95)
(101 102)
(102 103)
(103 98)
(104 105)
(105 106)
(106 101)
(107 108)
(108 109)
(109 104)
(57 110)
(110 111)
(111 107)
)

// concaveStart mixedStart nonFeatureStart
0 0 0
// internalStart flatStart openStart multipleStart
0 112 112 112
// normals

224
(
(-0 0 -1)
(-0.998427 0.0560718 0)
(0 0 -1)
(-0.998427 -0.0560718 -0)
(0 -0 -1)
(-0.923887 -0.382664 -0)
(0 0 -1)
(-0.960909 -0.276863 -0)
(0 0 -1)
(-0.985871 -0.167505 -0)
(0 -0 -1)
(-0.745648 -0.66634 -0)
(0 0 -1)
(-0.815543 -0.578696 -0)
(0 0 -1)
(-0.875241 -0.483688 -0)
(0 -0 -1)
(-0.483688 -0.875241 -0)
(0 0 -1)
(-0.578696 -0.815543 -0)
(0 0 -1)
(-0.66634 -0.745648 -0)
(0 -0 -1)
(-0.167505 -0.985871 -0)
(0 0 -1)
(-0.276863 -0.960909 -0)
(0 0 -1)
(-0.382664 -0.923887 -0)
(0 0 -1)
(0.167505 -0.985871 0)
(0 0 -1)
(0.0560718 -0.998427 0)
(0 0 -1)
(-0.0560718 -0.998427 -0)
(0 0 -1)
(0.483688 -0.875241 0)
(0 0 -1)
(0.382664 -0.923887 0)
(0 0 -1)
(0.276863 -0.960909 0)
(0 0 -1)
(0.745648 -0.66634 0)
(0 0 -1)
(0.66634 -0.745648 0)
(0 0 -1)
(0.578696 -0.815543 0)
(0 0 -1)
(0.923887 -0.382664 0)
(0 0 -1)
(0.875241 -0.483688 0)
(0 0 -1)
(0.815543 -0.578696 0)
(0 0 -1)
(0.998427 -0.0560718 0)
(0 0 -1)
(0.985871 -0.167505 0)
(0 0 -1)
(0.960909 -0.276863 0)
(0 0 -1)
(0.960909 0.276863 0)
(0 0 -1)
(0.985871 0.167505 0)
(-0 0 -1)
(0.998427 0.0560718 0)
(0 0 -1)
(0.815543 0.578696 0)
(0 0 -1)
(0.875241 0.483688 0)
(0 0 -1)
(0.923887 0.382664 0)
(0 0 -1)
(0.578696 0.815543 0)
(0 0 -1)
(0.66634 0.745648 0)
(0 0 -1)
(0.745648 0.66634 0)
(0 0 -1)
(0.276863 0.960909 0)
(0 0 -1)
(0.382664 0.923887 0)
(0 0 -1)
(0.483688 0.875241 0)
(-0 0 -1)
(-0.0560718 0.998427 0)
(0 -0 -1)
(0.0560718 0.998427 0)
(0 0 -1)
(0.167505 0.985871 0)
(-0 0 -1)
(-0.382664 0.923887 0)
(0 0 -1)
(-0.276863 0.960909 0)
(0 0 -1)
(-0.167505 0.985871 0)
(-0 0 -1)
(-0.66634 0.745648 0)
(0 0 -1)
(-0.578696 0.815543 0)
(0 0 -1)
(-0.483688 0.875241 0)
(-0 0 -1)
(-0.875241 0.483688 0)
(0 0 -1)
(-0.815543 0.578696 0)
(0 0 -1)
(-0.745648 0.66634 0)
(-0 0 -1)
(-0.985871 0.167505 0)
(0 0 -1)
(-0.960909 0.276863 0)
(0 0 -1)
(-0.923887 0.382664 0)
(0 0 1)
(-0.998427 -0.0560718 -0)
(0 0 1)
(-0.998427 0.0560718 0)
(0 -0 1)
(-0.923887 0.382664 0)
(0 0 1)
(-0.960909 0.276863 0)
(0 0 1)
(-0.985871 0.167505 0)
(0 -0 1)
(-0.745648 0.66634 0)
(0 0 1)
(-0.815543 0.578696 0)
(0 0 1)
(-0.875241 0.483688 0)
(0 -0 1)
(-0.483688 0.875241 0)
(0 0 1)
(-0.578696 0.815543 0)
(0 0 1)
(-0.66634 0.745648 0)
(0 -0 1)
(-0.167505 0.985871 0)
(0 0 1)
(-0.276863 0.960909 0)
(0 0 1)
(-0.382664 0.923887 0)
(-0 0 1)
(0.167505 0.985871 0)
(0 0 1)
(0.0560718 0.998427 0)
(0 0 1)
(-0.0560718 0.998427 0)
(-0 0 1)
(0.483688 0.875241 0)
(0 0 1)
(0.382664 0.923887 0)
(0 0 1)
(0.276863 0.960909 0)
(-0 0 1)
(0.745648 0.66634 0)
(0 0 1)
(0.66634 0.745648 0)
(0 0 1)
(0.578696 0.815543 0)
(-0 0 1)
(0.923887 0.382664 0)
(0 0 1)
(0.875241 0.483688 0)
(0 0 1)
(0.815543 0.578696 0)
(-0 0 1)
(0.998427 0.0560718 0)
(0 0 1)
(0.985871 0.167505 0)
(0 0 1)
(0.960909 0.276863 0)
(0 0 1)
(0.960909 -0.276863 0)
(0 0 1)
(0.985871 -0.167505 0)
(0 0 1)
(0.998427 -0.0560718 0)
(0 0 1)
(0.815543 -0.578696 0)
(0 0 1)
(0.875241 -0.483688 0)
(0 0 1)
(0.923887 -0.382664 0)
(0 0 1)
(0.578696 -0.815543 0)
(0 0 1)
(0.66634 -0.745648 0)
(0 0 1)
(0.745648 -0.66634 0)
(0 0 1)
(0.276863 -0.960909 0)
(0 0 1)
(0.382664 -0.923887 0)
(0 0 1)
(0.483688 -0.875241 0)
(0 0 1)
(-0.0560718 -0.998427 -0)
(0 -0 1)
(0.0560718 -0.998427 0)
(0 0 1)
(0.167505 -0.985871 0)
(0 0 1)
(-0.382664 -0.923887 -0)
(0 0 1)
(-0.276863 -0.960909 -0)
(0 0 1)
(-0.167505 -0.985871 -0)
(0 0 1)
(-0.66634 -0.745648 -0)
(0 0 1)
(-0.578696 -0.815543 -0)
(0 0 1)
(-0.483688 -0.875241 -0)
(0 0 1)
(-0.875241 -0.483688 -0)
(0 0 1)
(-0.815543 -0.578696 -0)
(0 0 1)
(-0.745648 -0.66634 -0)
(0 0 1)
(-0.985871 -0.167505 -0)
(0 0 1)
(-0.960909 -0.276863 -0)
(0 0 1)
(-0.923887 -0.382664 -0)
)

// normal volume types

224
(
0
0
0
0
0
0
0
0
0
0
0
0
0
0
0
0
0
0
0
0
0
0
0
0
0
0
0
0
0
0
0
0
0
0
0
0
0
0
0
0
0
0
0
0
0
0
0
0
0
0
0
0
0
0
0
0
0
0
0
0
0
0
0
0
0
0
0
0
0
0
0
0
0
0
0
0
0
0
0
0
0
0
0
0
0
0
0
0
0
0
0
0
0
0
0
0
0
0
0
0
0
0
0
0
0
0
0
0
0
0
0
0
0
0
0
0
0
0
0
0
0
0
0
0
0
0
0
0
0
0
0
0
0
0
0
0
0
0
0
0
0
0
0
0
0
0
0
0
0
0
0
0
0
0
0
0
0
0
0
0
0
0
0
0
0
0
0
0
0
0
0
0
0
0
0
0
0
0
0
0
0
0
0
0
0
0
0
0
0
0
0
0
0
0
0
0
0
0
0
0
0
0
0
0
0
0
0
0
0
0
0
0
0
0
0
0
0
0
0
0
0
0
0
0
)

// normalDirections

112
(
2(1 -1)
2(1 -1)
2(1 -1)
2(1 -1)
2(1 -1)
2(1 -1)
2(1 -1)
2(1 -1)
2(1 -1)
2(1 -1)
2(1 -1)
2(1 -1)
2(1 -1)
2(1 -1)
2(1 -1)
2(1 -1)
2(1 -1)
2(1 -1)
2(1 -1)
2(1 -1)
2(1 -1)
2(1 -1)
2(1 -1)
2(1 -1)
2(1 -1)
2(1 -1)
2(1 -1)
2(1 -1)
2(1 -1)
2(1 -1)
2(1 -1)
2(1 -1)
2(1 -1)
2(1 -1)
2(1 -1)
2(1 -1)
2(1 -1)
2(1 -1)
2(1 -1)
2(1 -1)
2(1 -1)
2(1 -1)
2(1 -1)
2(1 -1)
2(1 -1)
2(1 -1)
2(1 -1)
2(1 -1)
2(1 -1)
2(1 -1)
2(1 -1)
2(1 -1)
2(1 -1)
2(1 -1)
2(1 -1)
2(1 -1)
2(1 -1)
2(1 -1)
2(1 -1)
2(1 -1)
2(1 -1)
2(1 -1)
2(1 -1)
2(1 -1)
2(1 -1)
2(1 -1)
2(1 -1)
2(1 -1)
2(1 -1)
2(1 -1)
2(1 -1)
2(1 -1)
2(1 -1)
2(1 -1)
2(1 -1)
2(1 -1)
2(1 -1)
2(1 -1)
2(1 -1)
2(1 -1)
2(1 -1)
2(1 -1)
2(1 -1)
2(1 -1)
2(1 -1)
2(1 -1)
2(1 -1)
2(1 -1)
2(1 -1)
2(1 -1)
2(1 -1)
2(1 -1)
2(1 -1)
2(1 -1)
2(1 -1)
2(1 -1)
2(1 -1)
2(1 -1)
2(1 -1)
2(1 -1)
2(1 -1)
2(1 -1)
2(1 -1)
2(1 -1)
2(1 -1)
2(1 -1)
2(1 -1)
2(1 -1)
2(1 -1)
2(1 -1)
2(1 -1)
2(1 -1)
)

// edgeNormals

112
(
2(0 1)
2(2 3)
2(4 5)
2(6 7)
2(8 9)
2(10 11)
2(12 13)
2(14 15)
2(16 17)
2(18 19)
2(20 21)
2(22 23)
2(24 25)
2(26 27)
2(28 29)
2(30 31)
2(32 33)
2(34 35)
2(36 37)
2(38 39)
2(40 41)
2(42 43)
2(44 45)
2(46 47)
2(48 49)
2(50 51)
2(52 53)
2(54 55)
2(56 57)
2(58 59)
2(60 61)
2(62 63)
2(64 65)
2(66 67)
2(68 69)
2(70 71)
2(72 73)
2(74 75)
2(76 77)
2(78 79)
2(80 81)
2(82 83)
2(84 85)
2(86 87)
2(88 89)
2(90 91)
2(92 93)
2(94 95)
2(96 97)
2(98 99)
2(100 101)
2(102 103)
2(104 105)
2(106 107)
2(108 109)
2(110 111)
2(112 113)
2(114 115)
2(116 117)
2(118 119)
2(120 121)
2(122 123)
2(124 125)
2(126 127)
2(128 129)
2(130 131)
2(132 133)
2(134 135)
2(136 137)
2(138 139)
2(140 141)
2(142 143)
2(144 145)
2(146 147)
2(148 149)
2(150 151)
2(152 153)
2(154 155)
2(156 157)
2(158 159)
2(160 161)
2(162 163)
2(164 165)
2(166 167)
2(168 169)
2(170 171)
2(172 173)
2(174 175)
2(176 177)
2(178 179)
2(180 181)
2(182 183)
2(184 185)
2(186 187)
2(188 189)
2(190 191)
2(192 193)
2(194 195)
2(196 197)
2(198 199)
2(200 201)
2(202 203)
2(204 205)
2(206 207)
2(208 209)
2(210 211)
2(212 213)
2(214 215)
2(216 217)
2(218 219)
2(220 221)
2(222 223)
)

// featurePointNormals
0()
// featurePointEdges
0()
// regionEdges
0()


// ************************************************************************* //
