/*--------------------------------*- C++ -*----------------------------------*\
  =========                 |
  \\      /  F ield         | OpenFOAM: The Open Source CFD Toolbox
   \\    /   O peration     | Website:  https://openfoam.com
    \\  /    A nd           | Version:  2406
     \\/     M anipulation  |
\*---------------------------------------------------------------------------*/
FoamFile
{
    version     2.0;
    format      ascii;
    class       dictionary;
    location    "system";
    object      fvSolution;
}
// * * * * * * * * * * * * * * * * * * * * * * * * * * * * * * * * * * * * * //

solvers
{
    "alpha.oilHeavy.*"
    {
        nAlphaCorr      2;
        nAlphaSubCycles 1;
        cAlpha          1;
        MULESCorr       yes;
        nLimiterIter    5;
        solver          smoothSolver;
        smoother        symGaussSeidel;
        tolerance       1e-8;
        relTol          0;
    }

    "pcorr.*"
    {
        solver          GAMG;
        smoother        GaussSeidel;
        tolerance       1e-05;
        relTol          0;
    }

    p_rgh
    {
        solver          GAMG;
        smoother        GaussSeidel;
        tolerance       1e-08;
        relTol          0.05;
    }

    p_rghFinal
    {
        $p_rgh;
        relTol          0;
    }

    "(U|k|omega).*"
    {
        solver          smoothSolver;
        smoother        symGaussSeidel;
        tolerance       1e-07;
        relTol          0.1;
    }
}

PIMPLE
{
    momentumPredictor   yes;
    nOuterCorrectors    3;
    nCorrectors         2;
    nNonOrthogonalCorrectors 1;
    correctPhi          yes;
    moveMeshOuterCorrectors yes;

    // Closed domain (no fixed-pressure patch): pin a reference cell
    pRefCell            0;
    pRefValue           0;
}

relaxationFactors
{
    equations
    {
        "U.*"           0.7;
        "k.*"           0.7;
        "omega.*"       0.7;
    }
    fields
    {
        p_rgh           0.7;
    }
}

// ************************************************************************* //